107
Coordinates from ORCA-job hairpin
  O   0.04194258117649     -1.94332197809633     -3.02193038189915
  C   -0.41150659453836     -0.81174332096787     -3.05972196483604
  N   0.11541770584195      0.19460230509286     -3.78140232424090
  C   1.32664052633939      0.10899156768967     -4.58902446807149
  C   2.57928889595260     -0.11581026409877     -3.72071953385892
  N   2.45694378458571      0.08891681870307     -2.39807124933950
  H   1.55595886306883      0.31907417863976     -1.99555460411961
  C   3.59279141971500      0.07242976530441     -1.49767295130237
  H   4.44394551736477     -0.28560910200918     -2.07415596196573
  C   3.90957895122178      1.47151277726818     -0.95691833710048
  C   4.19653743966543      2.43908039394202     -2.07317856920758
  C   5.38839199072252      2.35771719871979     -2.79185367774671
  C   5.64398418437615      3.22377851610349     -3.84488812746357
  C   4.70793966038912      4.19104304703384     -4.19500354572163
  C   3.52085202444197      4.28568343246565     -3.48261795162588
  C   3.26851547289663      3.41240252167066     -2.43051615945543
  C   3.31393612451772     -0.91641190331893     -0.36233746032443
  N   3.13136130960374     -2.19419186359354     -0.70078496209340
  C   2.76517847231671     -3.13614074030116      0.35030079033847
  C   3.20100526141966     -2.69674644569529     -2.06623759350760
  O   3.24718705262908     -0.52885333336059      0.80974827362879
  O   3.63741079190501     -0.41051232767591     -4.25912369469884
  C   1.21749471242059     -0.98992584043598     -5.64416564002335
  C   1.51307365512010      1.46733554338664     -5.26785785555557
  C   -1.64079184881478     -0.42630987036870     -2.24812850462775
  H   -1.70251249596128      0.65903421461906     -2.17868099311652
  N   -1.54874462426282     -0.96960564733457     -0.89405904686733
  C   -0.60625597554432     -0.49040595860821     -0.08083987391648
  C   -0.72142368708579     -0.73047161169626      1.41565136372802
  H   -1.19964621852829     -1.68116048643646      1.63743237888410
  C   -1.56952452107537      0.41199232486897      2.01757641600932
  N   -2.97360761135517      0.24363059094218      1.70265417239838
  C   -3.83290871327464      0.67737156447815      2.57217597771342
  N   -3.54896572742695      1.62877898217521      3.52007233656140
  C   -2.67464287112610      2.74443968119423      3.22353385801016
  C   -4.13512625121732      1.62062272186921      4.84469557547161
  N   -5.10763184489425      0.17744116532000      2.61357969617506
  C   -5.43067436449242     -1.11130402799076      2.03907701031676
  C   -6.25050681456807      1.02125930271206      2.90724613506730
  N   0.61393562006736     -0.72806649538013      1.96375353165648
  H   1.36148409009291     -0.36598115437456      1.38669233894438
  C   0.90196195727188     -1.40988887022210      3.10459202030675
  N   2.24635491544022     -1.44957980234261      3.38873038364538
  H   2.85701119202306     -1.16490717406541      2.63011423652145
  C   2.86471379017483     -2.09026458823098      4.46636155790452
  C   4.23300710783431     -2.35540635873419      4.35068401158677
  C   4.92349267059742     -2.96359564170680      5.38498471040231
  C   4.26511012016905     -3.32194094418627      6.55545211718670
  C   2.90872664294523     -3.05243060939744      6.67319370807338
  C   2.20387152011684     -2.43836460601214      5.64598354201733
  O   0.03263869398962     -1.92288179901616      3.79874013322740
  O   0.29961641154936      0.22317751265005     -0.52027779746033
  C   -2.67142981799561     -1.85718442603813     -0.58883964818677
  C   -3.74614382983253     -1.31009645423612     -1.51095179442754
  H   -4.55429215568161     -2.01666946356633     -1.68049779547422
  N   -4.26968411571555     -0.08660012216952     -0.91382439440799
  C   -5.29460094573041      0.55383171153723     -1.46620103111350
  C   -5.79689248011037      1.79740803529875     -0.73257872508136
  F   -5.05052806297748      2.07069899080841      0.36401664042046
  F   -7.06046570665245      1.55295019929845     -0.30291618650627
  O   -5.86970469232117      0.22879937504459     -2.49342893811428
  C   -2.94899636422275     -1.01982721866747     -2.78831162346803
  H   -0.30215200953114      1.10670362357568     -3.67988444185893
  H   4.76770258186767      1.39272468440453     -0.29164311493235
  H   3.07021794926128      1.82171759643763     -0.36134707712818
  H   6.11967548734094      1.60547586200673     -2.52458941294821
  H   6.57217535745627      3.14542602497506     -4.39219760843050
  H   4.90405760804139      4.86506319541293     -5.01564760050717
  H   2.78784864553740      5.03417727781081     -3.74753992000905
  H   2.33880924714162      3.48435659126253     -1.88077809046226
  H   3.50149270164393     -3.12051224354213      1.15045183244065
  H   2.72144130141757     -4.13135100730474     -0.07658972848696
  H   1.79268320651370     -2.88470490731053      0.77023028455250
  H   3.67016741017893     -3.67613225417020     -2.04717053878801
  H   3.80071481248587     -2.04295003519599     -2.69186480277749
  H   2.20507671391895     -2.77994660702798     -2.50049544402580
  H   -1.15279817881641      1.34892394380036      1.63365354737255
  H   -1.39167884437777      0.40167320382485      3.09636098116770
  H   -3.14743470923442      3.66479110634998      3.56825931187950
  H   -2.52157103837200      2.82022238935127      2.15161646471563
  H   -1.70330801739520      2.65278541691715      3.71397242507667
  H   -4.82606884689928      2.45454753228570      4.98765535276135
  H   -3.34244061868431      1.70351639556417      5.58905752513740
  H   -4.66822960923688      0.69002607488039      5.00910548997828
  H   -5.77807871250103     -1.03516996307771      1.00557517767747
  H   -6.22928723378725     -1.56163322293369      2.62725461545173
  H   -4.55954910680725     -1.75667162774467      2.07216546863054
  H   -6.94186323027590      1.00546682651552      2.06350135683785
  H   -5.93061381386060      2.04570019070654      3.06503767600672
  H   -6.78075838253483      0.67351488218815      3.79500112330052
  H   4.74830247879873     -2.07689532397380      3.44084045967423
  H   5.98007279599022     -3.15928799124561      5.27308222663902
  H   4.80153147097446     -3.79943460230033      7.36143124533874
  H   2.38360983763742     -3.31764224337043      7.57958837555318
  H   1.15411516202283     -2.23026943857156      5.75318212206548
  H   -2.94470411089384     -1.80062046518158      0.45659463650672
  H   -2.43201921907330     -2.88241383777864     -0.86596203613232
  H   -3.87313871081769      0.21454599498862     -0.01827415086561
  H   -5.80988955394353      2.66534523223035     -1.38649898892542
  H   -3.46021230170049     -0.34059794077563     -3.46142282152878
  H   -2.75638406089789     -1.95828396162539     -3.30523098191959
  H   0.33880291778957     -0.80235354459117     -6.25775178145193
  H   1.12921122728567     -1.97017244766610     -5.18704751562432
  H   2.10024412352013     -0.97068787805162     -6.27550155607746
  H   0.67367123007762      1.65689915444892     -5.93438763948894
  H   2.43159355804309      1.46239172090700     -5.84777360895390
  H   1.57221669013859      2.26580763409297     -4.52866838671078
