104
Coordinates from ORCA-job folded
  O   -0.58785530121061     -1.16168476091313     -3.16663169926206
  C   -0.88093971779858     -1.52161348488243     -2.03825585896012
  N   -0.06593040313798     -2.23070501219229     -1.23225400308752
  C   1.28879878678171     -2.63700714383048     -1.56752043893364
  C   2.31208615015059     -1.49437717886162     -1.54101263735276
  N   1.90982541534749     -0.29615554949037     -1.09312310149828
  H   0.95245575931696     -0.13246561719136     -0.80139306554547
  C   2.84808845392760      0.79907304763591     -0.97518044004485
  H   3.48911199732453      0.78920571044865     -1.85078601901829
  C   2.09627910683880      2.13569776806802     -0.91691087653385
  C   3.05686854685531      3.29308454053590     -0.84606484166928
  C   3.38344522230240      3.87559743619291      0.37616754172853
  C   4.31117103843538      4.90784878923277      0.44486585341196
  C   4.92297135056716      5.37226165739213     -0.71232645698134
  C   4.60135546292390      4.80032782206006     -1.93748137443411
  C   3.67682816946131      3.76683557073118     -2.00111585154865
  C   3.65956975946615      0.65271805753146      0.31704084177389
  N   4.99153095475674      0.68969621630957      0.25364672476407
  C   5.78090448412469      0.72046923615134      1.47726657097761
  C   5.75105864771881      0.77404586440622     -0.99192539125890
  O   3.04165829071599      0.54866253318036      1.38650393304512
  O   3.47021224459287     -1.71239766633541     -1.88122370815591
  C   1.39185159856101     -3.44108306202240     -2.86074645190468
  C   -2.25335908309596     -1.18677347470924     -1.44720067922114
  H   -2.61309694749606     -0.31513666208719     -1.99559940898629
  N   -2.18491468296498     -0.90459941264680     -0.01536062483676
  C   -1.28901580094557     -0.01417076566685      0.42975086938109
  C   -0.99400697102453      0.07606889262521      1.92484974259838
  H   -1.69755999140486     -0.52006630536315      2.49860558478530
  C   -1.06584956681657      1.54473010964433      2.33977214817469
  N   -2.31872213829705      2.07524887584748      1.85504511577534
  C   -2.29211601607355      3.11487540843170      1.09253251698191
  N   -1.26545227287596      4.03300951334980      1.04336286884161
  C   -0.87228759587266      4.71448729224210     -0.17133653906653
  C   -0.59207987610209      4.47211975266108      2.24663881680948
  N   -3.32862145827008      3.34734993240143      0.21589829644695
  C   -4.27076300797873      2.27597167625364     -0.03142342151562
  C   -3.90450961373408      4.67823692758436      0.10272923980860
  N   0.35166166765769     -0.42774656755068      2.14968285825714
  H   1.10979077586398      0.21455381351514      1.93860956589708
  C   0.62198670605827     -1.75591829289395      1.95612884024394
  N   1.95692531847127     -2.05068828709628      1.96907531334304
  H   2.57849885611660     -1.25009059185604      1.92384420891637
  C   2.55049589452915     -3.29310751550526      1.70799463789883
  C   1.89580097107435     -4.51367425091115      1.87350449348562
  C   2.56531181188958     -5.69460296956504      1.57697677789033
  C   3.87874276507258     -5.68366239108955      1.12938527898255
  C   4.53348938345063     -4.46588234177042      0.98416871122812
  C   3.87733335517409     -3.28113440102416      1.26979606054276
  O   -0.26640920429043     -2.59126482512044      1.80222786220513
  O   -0.62092389515259      0.65738317450594     -0.36001928759111
  C   -3.16837708155455     -1.66188404915030      0.76795322601876
  C   -4.14261474139004     -2.15439913373577     -0.30503331823788
  H   -4.63544853096377     -3.06987956675464      0.01164528891546
  N   -5.17101955873361     -1.16462057341701     -0.60224546339274
  C   -6.20123646551911     -0.98002336130725      0.22702520074063
  C   -7.27315070846541      0.01335261201880     -0.23126131990711
  F   -6.90212156266851      0.65440807495997     -1.36891286835918
  F   -7.43350684849547      0.95576213482059      0.72682735072136
  O   -6.36359180697332     -1.56133053969483      1.28530506074848
  C   -3.24066179768555     -2.36116942262830     -1.51905626950277
  H   -0.39993960045024     -2.48087083947326     -0.30943399742150
  H   1.43598227858279      2.12656500214440     -0.04922528598290
  H   1.47424466503110      2.20688671854560     -1.80947901255681
  H   2.90864699016847      3.51238921007624      1.27875987111895
  H   4.55400939919302      5.34970373014705      1.40137950320166
  H   5.64324218929914      6.17667803181853     -0.66099616135610
  H   5.07020127182665      5.15958421452558     -2.84309885764307
  H   3.42915919553938      3.32151971350537     -2.95711883030957
  H   6.41465860352614     -0.16408327364025      1.53082951359932
  H   5.12095781103148      0.74869993583536      2.33492787968206
  H   6.41568231488560      1.60603586511159      1.47229053463330
  H   5.36805095519280      0.07000372101617     -1.72454097256799
  H   6.77979846188081      0.50715645687351     -0.76901488310771
  H   5.73318366486599      1.78567561093293     -1.39851864590275
  H   -0.19416611358831      2.04786553906014      1.90848119606941
  H   -0.98313947440683      1.60191265489921      3.42724333618174
  H   -1.36573837258627      4.26437563438049     -1.02720176331741
  H   0.20926788991960      4.62162011840623     -0.30106389820801
  H   -1.11767259579057      5.78015095227727     -0.14028996248973
  H   -1.04671573407746      4.01120316459469      3.11843993759294
  H   -0.68361245376324      5.55733579151442      2.34103650670691
  H   0.47069030587267      4.22100474704553      2.22997035945212
  H   -3.73865992917168      1.33564753309214     -0.15257316929625
  H   -4.81763491006596      2.50184562657853     -0.94589083817712
  H   -4.98925786734007      2.16380749216156      0.78604937780351
  H   -4.13836382115026      4.90171714237242     -0.93811753677669
  H   -3.21334797837789      5.42620084958543      0.47628253159769
  H   -4.82832679206870      4.74238590636260      0.68521396249134
  H   0.87837495780691     -4.53584058627868      2.22473963760349
  H   2.04631660976196     -6.63462664590345      1.70424118724817
  H   4.38699888911181     -6.60901658279109      0.90002343315558
  H   5.55774688606690     -4.43480079347171      0.63966420343220
  H   4.38390987561452     -2.33212546797103      1.14116919246984
  H   -3.66020165473335     -1.02549937063422      1.49901831058896
  H   -2.69254295196861     -2.50229938618446      1.27216898443209
  H   -5.12197747590141     -0.62407586674775     -1.45270263553297
  H   -8.22640820710440     -0.48499457577381     -0.39797575470545
  H   -3.78557315984162     -2.39017437587473     -2.45833837752531
  H   -2.70748696786365     -3.30270556526111     -1.39530776959185
  H   1.60473368911861     -3.28638094781369     -0.74743904348305
  H   1.16048984264083     -2.82708808509437     -3.72551390508467
  H   0.69404562504679     -4.27476447435296     -2.82070398436674
  H   2.40041338973123     -3.83190378907064     -2.96016915819088
