104
Coordinates from ORCA-job hairpin
  O   -0.12046326290867     -2.00189004393367     -3.05395087317059
  C   -0.47127525319152     -0.83093363635855     -3.06651735947622
  N   0.15886332641421      0.12665554867745     -3.77441276030115
  C   1.36324307180342     -0.12530993763340     -4.53743888844166
  C   2.63569801454882     -0.16538156600048     -3.68069033043400
  N   2.49053459712995      0.02818728594623     -2.35950516285805
  H   1.57572729970256      0.23046627344138     -1.97066047530119
  C   3.61844680516178      0.11445464467555     -1.45241884717914
  H   4.49855378402907     -0.21870420357366     -2.00447547404076
  C   3.84259692812855      1.55871524171353     -0.98265573830062
  C   4.13349337420579      2.46132828273756     -2.15057575530954
  C   5.42746911161094      2.56596590786531     -2.65937735779075
  C   5.69146053280954      3.34887124106456     -3.77529365486574
  C   4.66019442035100      4.04155085281204     -4.40061467276182
  C   3.36845281287053      3.95011195561131     -3.89832622489513
  C   3.10900329477358      3.16417076296809     -2.78122255802788
  C   3.38079318866262     -0.83065997753369     -0.26916232682083
  N   3.28099289253936     -2.13747159924067     -0.53705808888809
  C   2.94413012789779     -3.03857162081060      0.56087931896467
  C   3.38090353132278     -2.71590197140830     -1.87108915940631
  O   3.27008309083756     -0.38378234646040      0.88049211851178
  O   3.71433845861834     -0.38284344117407     -4.22081207006561
  C   1.51245692286996      0.91643524271948     -5.63930507434284
  C   -1.67191979332566     -0.34991759776953     -2.26070056506497
  H   -1.66328609478455      0.74019287859616     -2.20624427978115
  N   -1.62388376937808     -0.88231069398525     -0.89509643518029
  C   -0.66663666535137     -0.44588532866706     -0.07071519199916
  C   -0.77545374825313     -0.72337521468150      1.42038743108747
  H   -1.27297596341988     -1.67093324708307      1.62121101944063
  C   -1.58774277701578      0.41608396385740      2.08064392281052
  N   -3.00008632630594      0.26306170142278      1.80724814607399
  C   -3.84442769960380      0.62921861271682      2.72368533658239
  N   -3.57811112640988      1.55761859134364      3.69928800958341
  C   -2.80207757195719      2.74620714066441      3.40414442666646
  C   -4.11079064002625      1.46974726028404      5.04567146904856
  N   -5.08687003586419      0.05701381861809      2.77004985436193
  C   -5.33135506903901     -1.20821339472423      2.11119868881471
  C   -6.27723243063919      0.81985887992456      3.10586422812744
  N   0.56576862409584     -0.77237196166169      1.95099658473850
  H   1.31134594465325     -0.37868873684339      1.39250937876251
  C   0.84432538408346     -1.45630032875184      3.09333103764544
  N   2.18836098465074     -1.49209452234526      3.38727219711375
  H   2.80355809562384     -1.16816917176378      2.64677192270760
  C   2.81092196599127     -2.12786098788187      4.46504596274086
  C   4.19842179194393     -2.29803029801641      4.38487549466593
  C   4.89734048157264     -2.89932209077557      5.41805830292701
  C   4.23030989714696     -3.34563622717179      6.55382809053835
  C   2.85528608817471     -3.17164111083575      6.63641322454257
  C   2.13986421785216     -2.56693947470256      5.60988110015535
  O   -0.03035182385443     -1.97899964606984      3.77772125113072
  O   0.27181010333164      0.23734692999141     -0.49754988105381
  C   -2.79508386869847     -1.71486610042527     -0.60365883367232
  C   -3.83627103877064     -1.11465385345789     -1.53682601688629
  H   -4.67889538678279     -1.78060946707569     -1.71698999243717
  N   -4.30980895869884      0.14207458501830     -0.96297116288501
  C   -5.28064797676454      0.83129490412935     -1.55794347418761
  C   -5.69098720092450      2.15403661165189     -0.90322776440443
  F   -4.97106724006548      2.41533008224944      0.21868169893395
  F   -6.99691545010610      2.06241573981116     -0.53399524762752
  O   -5.85179529229449      0.51086203958847     -2.59159059783626
  C   -3.00957982864068     -0.87154747582558     -2.80587655426832
  H   -0.14035259367744      1.08431631301534     -3.66661180403040
  H   4.67253889303163      1.56545410525945     -0.27662458521241
  H   2.95317471901327      1.89445950724905     -0.44942602334702
  H   6.23308592950131      2.02401391802414     -2.17720949250101
  H   6.70148498350216      3.41881970652503     -4.15762350020808
  H   4.86337217183826      4.65130111903201     -5.27075329809895
  H   2.56094892460691      4.48917551710243     -4.37684068216165
  H   2.09929387738705      3.09222093432781     -2.39266458305411
  H   3.65099458298147     -2.92049182375796      1.38064562910628
  H   2.98567871956002     -4.06029397709071      0.19574799801013
  H   1.94057366503865     -2.83274080699375      0.93532113512398
  H   3.90260194770334     -3.66782771570452     -1.79549560530910
  H   3.94566196085231     -2.07048889230242     -2.53847612360436
  H   2.38998185062711     -2.88448845945132     -2.29794053433171
  H   -1.17035484520580      1.36163588581227      1.71355873383147
  H   -1.37702331357291      0.36739907970987      3.15432971991009
  H   -3.32027573413459      3.61721791726725      3.81228122230695
  H   -2.71956546732295      2.87255871800133      2.32720292993780
  H   -1.79862402786474      2.70793531479599      3.83769315094868
  H   -4.85991244476317      2.24359178558729      5.23927598734108
  H   -3.29626887115002      1.59725854074868      5.76242987429070
  H   -4.56240229515368      0.49411935185153      5.20429249169442
  H   -5.64402010565156     -1.07878411768120      1.06872729462285
  H   -6.12636204159292     -1.73190670103161      2.64455084106496
  H   -4.42970636992365     -1.81429101540071      2.13427580549945
  H   -6.96948414253034      0.80891672223660      2.26093036124896
  H   -6.01596677648745      1.85285674228401      3.31682697286366
  H   -6.78606202162051      0.39591623046403      3.97525413148114
  H   4.72287712861244     -1.94995633788439      3.50270035292719
  H   5.96937257560371     -3.02003938982485      5.33243956944904
  H   4.77438758013563     -3.81764100754167      7.36037410592365
  H   2.32103618578667     -3.50728206817004      7.51598903498679
  H   1.07392275806678     -2.43666069905135      5.69079303331302
  H   -3.07381305269742     -1.65218028588491      0.44168500773252
  H   -2.59960601023959     -2.74993157513008     -0.88691327106699
  H   -3.92834127342464      0.42527344299486     -0.05169989725862
  H   -5.58192407870547      2.98767989095001     -1.59682099424705
  H   -3.47802527111440     -0.16673932807301     -3.48684200128176
  H   -2.86320781030784     -1.82248574424013     -3.31861904209333
  H   1.27966125255956     -1.12203093024110     -4.97461402313164
  H   1.57303116594563      1.91780044964750     -5.20861046765054
  H   0.65707018808723      0.87061315183722     -6.31095000705340
  H   2.42079261436642      0.72909682527390     -6.20519581468697
