102
temp
O     -0.666952 -0.953597 -4.365213
C     -0.639351  0.155391 -3.848476
N      0.355196  1.073100 -4.037191
C      1.582742  0.799499 -4.692514
C      2.831558  0.858361 -3.851505
N      2.624991  0.717304 -2.520867
H      1.676982  0.639554 -2.156282
C      3.688017  0.828863 -1.533193
H      4.639126  0.843140 -2.077520
C      3.555996  2.136650 -0.731337
C      3.601954  3.332997 -1.643993
C      4.824554  3.845495 -2.087227
C      4.866816  4.911088 -2.981871
C      3.683023  5.479676 -3.449498
C      2.459055  4.981059 -3.009576
C      2.421285  3.916382 -2.111612
C      3.631894 -0.394860 -0.599190
N      3.939473 -1.600538 -1.108045
C      3.761921 -2.774174 -0.246981
C      4.249680 -1.862533 -2.513422
O      3.291789 -0.251843  0.590660
O      3.946081  0.980893 -4.365997
C     -1.747359  0.619508 -2.892865
H     -1.573546  1.653725 -2.570786
N     -1.762699 -0.243893 -1.691629
C     -0.823681 -0.068359 -0.748583
C     -0.986867 -0.716040  0.620923
H     -1.579944 -1.634188  0.580562
C     -1.685879  0.303384  1.565036
N     -3.106733  0.382398  1.272250
C     -3.924469  0.592528  2.272501
N     -3.572846  1.212933  3.451776
C     -2.681021  2.363974  3.459487
C     -4.115762  0.825085  4.746985
N     -5.226076  0.160401  2.195383
C     -5.601066 -0.907904  1.282570
C     -6.336748  0.967965  2.690794
N      0.346224 -1.037101  1.091374
H      1.098616 -0.429078  0.785238
C      0.526754 -1.869403  2.164181
N      1.842904 -1.927133  2.582608
H      2.509243 -1.394371  2.024982
C      2.394759 -2.692990  3.613158
C      3.774588 -2.542092  3.838250
C      4.411643 -3.262588  4.838514
C      3.692747 -4.146667  5.642364
C      2.325994 -4.293312  5.422565
C      1.669391 -3.581613  4.421275
O     -0.400073 -2.505721  2.675662
O      0.154298  0.676433 -0.951117
C     -3.020537 -1.002616 -1.610388
C     -3.996054 -0.059225 -2.304199
H     -4.906167 -0.569059 -2.638525
N     -4.336855  1.025654 -1.379157
C     -5.255879  1.935009 -1.714892
C     -5.557385  3.038623 -0.689949
F     -4.783617  2.945598  0.439085
F     -6.866824  2.907502 -0.292693
O     -5.872816  1.975614 -2.781653
C     -3.153643  0.442470 -3.488391
H      0.327075  1.891786 -3.442669
H      4.375024  2.171224 -0.004714
H      2.616424  2.114804 -0.170308
H      5.751345  3.400947 -1.729734
H      5.825514  5.298895 -3.315682
H      3.715250  6.310340 -4.149108
H      1.531525  5.423288 -3.363493
H      1.464310  3.532300 -1.763438
H      4.241608 -2.610429  0.721719
H      4.221206 -3.636412 -0.733329
H      2.697486 -2.981917 -0.079757
H      3.359660 -2.217761 -3.050130
H      5.021728 -2.635613 -2.563424
H      4.625914 -0.971396 -3.015124
H     -1.157854  1.263580  1.440710
H     -1.496466 -0.038942  2.594006
H     -3.126312  3.158702  4.073186
H     -2.558386  2.747480  2.444412
H     -1.690468  2.125905  3.873126
H     -4.797674  1.584929  5.156436
H     -3.290807  0.689871  5.459353
H     -4.653778 -0.120924  4.658365
H     -5.886961 -0.533317  0.287720
H     -6.460544 -1.443781  1.703253
H     -4.769392 -1.606701  1.168977
H     -7.011877  1.216830  1.861064
H     -5.965886  1.901639  3.117142
H     -6.913337  0.430293  3.455875
H      4.343193 -1.849296  3.221764
H      5.479069 -3.127739  4.991356
H      4.190447 -4.709473  6.426338
H      1.748766 -4.977510  6.039270
H      0.607728 -3.709161  4.263396
H     -3.290829 -1.213942 -0.577007
H     -2.939924 -1.935537 -2.181981
H     -3.928343  0.985736 -0.428462
H     -5.425187  4.035097 -1.128841
H     -3.533524  1.369276 -3.920866
H     -3.138505 -0.333310 -4.260630
C      1.646652  0.433061 -5.971256
H      0.753442  0.370729 -6.582725
H      2.606073  0.176906 -6.406140
