101
Coordinates from ORCA-job folded
  O   -0.76780821092624     -1.32055535288501     -3.05656875305501
  C   -1.00368775009048     -1.58410475525845     -1.89140382399373
  N   -0.13514002226561     -2.23071435048144     -1.08923218945460
  C   1.18314291867695     -2.61192757964178     -1.52528214717077
  C   2.24442233556849     -1.52348266753576     -1.43713344344593
  N   1.84893304836497     -0.30537861804216     -1.05073908121257
  H   0.88301351823973     -0.12501516551290     -0.79752630982134
  C   2.79144317864848      0.78873498935082     -0.98312711748119
  H   3.39380908115234      0.76973144844001     -1.88415709468269
  C   2.03773449601229      2.12300498440758     -0.90717100600760
  C   2.99411823391463      3.28575805019478     -0.90584371926614
  C   3.43058407198275      3.84806667718502      0.29084956925186
  C   4.35862050664626      4.88134068046370      0.29107445824170
  C   4.85841551017549      5.36814475756006     -0.90917266575965
  C   4.42490051704606      4.81783590169352     -2.10847160228005
  C   3.50152039067100      3.78202541352102     -2.10422397228553
  C   3.66239153483288      0.65699931338239      0.27008126480203
  N   4.98611708629855      0.71472999505779      0.14551055118900
  C   5.83041500198236      0.75077825040628      1.32983343384212
  C   5.68069719240983      0.81580800466221     -1.13435541513142
  O   3.09618585683264      0.54515749017859      1.36524086121482
  O   3.40357608990816     -1.78506099125825     -1.73282610815756
  C   -2.34548561336386     -1.21276592215462     -1.25837551347945
  H   -2.73058043887181     -0.36622233676453     -1.82353969625713
  N   -2.22514800351977     -0.87442941417094      0.16080416824122
  C   -1.31056173901309      0.02428968717992      0.54894114458752
  C   -0.94911681884547      0.14473475275101      2.02880711233541
  H   -1.64101970089596     -0.41561412154890      2.64867006986910
  C   -0.95474892885825      1.62193548791407      2.41168442156802
  N   -2.19486888530055      2.20189580903510      1.95736343055848
  C   -2.15101520905498      3.25304502616206      1.21418771623800
  N   -1.09313153412529      4.13251333079249      1.14703381077576
  C   -0.70493177505891      4.81566556807424     -0.06768729256521
  C   -0.36413603827220      4.52783154514292      2.33156077688414
  N   -3.19886377088762      3.53198798147825      0.36662815159640
  C   -4.16083139936717      2.48675221906614      0.10033144030940
  C   -3.74816705986868      4.87495469190725      0.29513908702901
  N   0.39515792868433     -0.38078636009164      2.21166999860872
  H   1.15997192258716      0.23913013194227      1.95925733107865
  C   0.63975260645416     -1.71873242635834      2.07461890434638
  N   1.96480461695567     -2.02405368943163      1.99499029687279
  H   2.58715751987743     -1.22642340376172      1.91698345844334
  C   2.54099238366465     -3.27204480056282      1.71981939483423
  C   1.88010517973922     -4.49070233211644      1.87211919647076
  C   2.54465775163584     -5.67148408024084      1.56623665279297
  C   3.85739256743584     -5.66343759392390      1.12029589287516
  C   4.51608707746169     -4.44783261989125      0.98175066945508
  C   3.86570988763977     -3.26343849572859      1.27677421248995
  O   -0.26346268010096     -2.54854295198149      2.01078967757548
  O   -0.67139116144093      0.66895238921482     -0.28246977174066
  C   -3.16595154333788     -1.62147650917208      1.00418157965972
  C   -4.17657119861867     -2.15435703134319     -0.00291606842500
  H   -4.64428754265036     -3.07104738861077      0.34113041152393
  N   -5.22552056856334     -1.17072147330125     -0.23656894278881
  C   -6.33276253990379     -1.49862130766474     -0.90169034226163
  C   -7.39459606483745     -0.40574889835754     -1.03294201695032
  F   -6.98295973790936      0.75662122252429     -0.47406618192361
  F   -8.49448977168178     -0.80588380170927     -0.35485416899949
  O   -6.55876218308010     -2.58613586128273     -1.39690528581604
  C   -3.32746543634067     -2.39146443097129     -1.25425310236667
  H   -0.40700026051001     -2.44907004346170     -0.13998741664051
  H   1.42477192540380      2.12602529947009     -0.00476584391223
  H   1.36974008097241      2.17710882591899     -1.76514820958909
  H   3.04336790512587      3.46708250071771      1.22663661319632
  H   4.68868604330849      5.30682097712951      1.22725403780419
  H   5.57759526562795      6.17354000988085     -0.91057365521074
  H   4.80590630032603      5.19475083869367     -3.04609875502272
  H   3.16754112126685      3.35229440732635     -3.03946366658543
  H   6.48720394271990     -0.11632516313315      1.34007190663054
  H   5.21173803763149      0.75045068349419      2.21646202182343
  H   6.44037907120237      1.65157537235492      1.30767321546735
  H   5.29515985578761      0.08585580062095     -1.83801332489573
  H   6.72851472532216      0.59970426368875     -0.95754179077435
  H   5.59619952971757      1.81864462794258     -1.55038014544040
  H   -0.07893024503975      2.08275159102084      1.94685881952978
  H   -0.83378912759381      1.69351528342569      3.49328008868722
  H   -1.23555904381149      4.39853581166002     -0.91606833674974
  H   0.36724604160344      4.68622894952357     -0.22511411884682
  H   -0.90819483985188      5.88740762167232     -0.01352093818108
  H   -0.81622199407474      4.08735304918629      3.21310318313466
  H   -0.39586223288948      5.61418150371011      2.43180946856845
  H   0.68212629930944      4.22118738056962      2.28009115194714
  H   -3.63806380426596      1.54687041194050     -0.05378504761962
  H   -4.71065679303801      2.74591296511449     -0.80150562482478
  H   -4.87398937349572      2.36115786308877      0.91958859021692
  H   -3.97897173597361      5.13421441532582     -0.73659195895683
  H   -3.04355893026660      5.59668158309691      0.68957038060427
  H   -4.66804124045668      4.93864660610141      0.88083806595308
  H   0.86391879474897     -4.51365253563566      2.22278671624497
  H   2.02152743728833     -6.60894296043381      1.68481762491917
  H   4.36114115598586     -6.58827989013756      0.88483347056567
  H   5.53905823608473     -4.41875939293957      0.63699246657587
  H   4.37546418174278     -2.31607525274979      1.15684548512429
  H   -3.62533383370825     -0.97200032224535      1.74384464178347
  H   -2.65816976757246     -2.44011520585412      1.50622534784233
  H   -5.13776848764634     -0.24035847010422      0.14061058022746
  H   -7.66106650803641     -0.23075363722894     -2.07070390017566
  H   -3.91951171263691     -2.44382083997642     -2.16076181302185
  H   -2.78545736674892     -3.32767409648068     -1.13251730015869
  H   1.53345904701422     -3.44828580104967     -0.92270410604820
  H   1.15424761497834     -2.93412609917659     -2.56365123697344
