157
temp
O     -5.837388  1.902502  2.835593
C     -5.814249  1.266935  1.768693
C     -7.037987  0.804653  1.105576
C     -6.973874  0.254303 -0.196308
N     -5.768608  0.086992 -0.817298
C     -5.730549 -0.469578 -2.160581
C     -4.464023  0.129347 -0.100997
O     -4.157552 -1.271732  0.404144
C     -5.006549 -1.908061  1.370423
O     -3.478779  0.476104 -0.844394
C     -8.192451 -0.087863 -0.828760
C     -9.400122  0.091350 -0.172503
C     -9.454705  0.616841  1.121680
C     -8.268521  0.975214  1.742772
N     -4.645132  1.013055  1.107867
C     -3.442313  1.501953  1.722611
C     -2.839656  0.639215  2.645178
C     -1.700281  1.004507  3.343808
C     -1.146356  2.258428  3.103790
C     -1.753335  3.115778  2.197447
C     -2.925085  2.787710  1.488773
C     -3.501779  3.893485  0.578733
C     -3.761097  5.147387  1.442947
C     -2.461209  4.227742 -0.509626
C     -4.816518  3.576847 -0.149454
H     -6.324182  0.143850 -2.848928
H     -6.116069 -1.500148 -2.194321
H     -4.694750 -0.458449 -2.497452
H     -8.193368 -0.508699 -1.826858
H     -10.318250 -0.191797 -0.681403
H     -10.406328  0.748479  1.626651
H     -8.265822  1.405396  2.739804
H     -3.299376 -0.328954  2.815725
H     -1.248692  0.320624  4.056176
H     -0.245748  2.573203  3.624198
H     -1.301512  4.090748  2.042983
H     -4.472069  4.917982  2.244601
H     -4.191735  5.938192  0.817937
H     -2.847077  5.539762  1.897366
H     -2.312474  3.359452 -1.161145
H     -1.493306  4.516753 -0.088070
H     -2.823572  5.059626 -1.124875
H     -5.647304  3.430737  0.545975
H     -4.726884  2.700475 -0.794557
H     -5.064843  4.441524 -0.776284
O      2.717739 -4.250119 -0.979357
C      2.080832 -3.618848 -0.141020
N      2.625350 -3.084110  0.983484
C      4.026559 -3.124139  1.283577
C      4.918635 -2.086654  0.648805
N      4.333206 -1.222039 -0.208122
C      5.109721 -0.196239 -0.886932
H      6.057272 -0.637365 -1.204686
C      4.344578  0.292686 -2.132482
C      5.121204  1.350139 -2.873078
C      6.155909  0.991372 -3.742210
C      6.908060  1.966164 -4.391894
C      6.636328  3.316521 -4.178667
C      5.605713  3.684503 -3.316540
C      4.853946  2.706792 -2.668977
C      5.331969  1.009464  0.040938
N      6.581453  1.448156  0.251563
C      6.809099  2.687250  0.996675
O      4.331411  1.573133  0.533566
O      6.128387 -2.050489  0.904471
C      4.396259 -3.549171  2.690543
C      4.655512 -4.476084  1.553106
C      0.566894 -3.424727 -0.293444
H      0.360159 -3.475189 -1.369569
N      0.100351 -2.143165  0.257397
C      0.683379 -1.009373 -0.163669
C      0.399651  0.303248  0.568065
H     -0.445206  0.212875  1.255886
C      0.138656  1.412794 -0.458605
N     -0.849109  0.992740 -1.442067
C     -0.560874  0.863199 -2.746920
N     -1.185362 -0.074816 -3.481606
C     -1.653516 -1.337362 -2.916815
C     -1.518926  0.138152 -4.890180
N      0.350172  1.666170 -3.339185
C      0.516741  3.073411 -2.979678
C      1.240867  1.179762 -4.392300
N      1.586132  0.687582  1.325149
C      1.963559 -0.043790  2.432843
N      3.204004  0.307018  2.911682
C      3.919222 -0.313756  3.946730
C      5.313797 -0.163681  3.934059
C      6.091977 -0.737529  4.929898
C      5.497207 -1.472183  5.954720
C      4.111422 -1.606261  5.974410
C      3.315854 -1.029352  4.988202
O      1.238827 -0.908927  2.938390
O      1.522760 -1.026284 -1.083090
C     -0.998504 -2.315984  1.230171
C     -1.531748 -3.705943  0.883006
H     -2.025369 -4.173821  1.743901
N     -2.477343 -3.578358 -0.231876
C     -3.021132 -4.637836 -0.855278
C     -3.963359 -4.238906 -2.009568
F     -5.006348 -5.115841 -2.066293
F     -3.256125 -4.372354 -3.184757
O     -2.786158 -5.820344 -0.627807
C     -0.254184 -4.462531  0.488877
H      2.025589 -2.580337  1.629941
H      3.333441 -1.254803 -0.389348
H      3.372169  0.683906 -1.814158
H      4.164979 -0.576511 -2.776219
H      6.370856 -0.062158 -3.910346
H      7.706846  1.671679 -5.067246
H      7.222388  4.077932 -4.685865
H      5.384937  4.735221 -3.148470
H      4.051352  2.995035 -1.993778
H      7.387492  2.477726  1.904069
H      5.852781  3.131885  1.269068
H      7.376445  3.387744  0.372641
H      1.078067  1.626292 -0.975439
H     -0.185380  2.316260  0.070965
H     -2.572883 -0.124794 -5.036234
H     -0.907389 -0.492043 -5.547132
H     -1.380887  1.186809 -5.157243
H      1.213795  0.089365 -4.432698
H      2.263041  1.494967 -4.149035
H      0.974979  1.591127 -5.374047
H      2.353104  1.081489  0.778641
H      3.754720  0.907271  2.300183
H      5.785741  0.394025  3.127796
H      7.171219 -0.615979  4.897649
H      6.105819 -1.927273  6.730401
H      3.632141 -2.164495  6.774385
H      2.240005 -1.136025  5.020731
H     -1.758287 -1.536268  1.117025
H     -0.613084 -2.298677  2.255166
H     -2.947545 -2.672981 -0.324206
H     -4.358336 -3.215848 -1.956845
H     -0.444512 -5.362946 -0.093803
H      0.267948 -4.744134  1.410336
H      3.560370 -3.761892  3.349647
H      5.236633 -3.029237  3.137560
H      5.679439 -4.599400  1.216965
H      3.997291 -5.328198  1.421300
C      7.786127  0.799502 -0.282136
H      8.645165  1.183617  0.272236
H      7.926581  1.029210 -1.345526
H      7.742995 -0.281783 -0.135133
H     -0.260048  3.381722 -2.279072
H      0.429427  3.681145 -3.888735
H      1.503336  3.255217 -2.535104
H     -2.743798 -1.343837 -2.815349
H     -1.211605 -1.497029 -1.934096
H     -1.349172 -2.152794 -3.583187
C     -6.046632 -2.838963  0.765986
H     -5.572043 -3.659846  0.219554
H     -6.722949 -2.311787  0.087607
H     -6.648521 -3.281210  1.568308
H     -5.491054 -1.158678  2.008481
H     -4.337041 -2.488687  2.022517
H     -1.792074  0.708062 -1.109818
