157
temp
O      2.673803  1.854679 -1.641480
C      3.398660  0.936610 -1.144477
C      3.263065 -0.458817 -1.650084
C      4.069835 -1.535011 -1.184369
N      4.968906 -1.365778 -0.141975
C      5.809598 -2.498034  0.255451
C      4.563969 -0.472668  0.935147
O      5.679967 -0.088647  1.622418
C      5.486083  0.350797  2.987815
O      3.461237 -0.606734  1.501200
C      3.945613 -2.783029 -1.827130
C      3.045550 -2.970870 -2.867708
C      2.233868 -1.926412 -3.303623
C      2.361727 -0.686940 -2.692557
N      4.352402  1.107908 -0.245728
C      4.614373  2.370719  0.315582
C      3.738482  2.833396  1.308245
C      3.964710  4.019066  1.993036
C      5.090347  4.771126  1.679998
C      5.958164  4.328630  0.684824
C      5.760392  3.135881 -0.025230
C      6.743464  2.726409 -1.136470
C      6.010342  2.643813 -2.490955
C      7.879031  3.749337 -1.304255
C      7.400696  1.368829 -0.821742
H      5.223605 -3.348734  0.636635
H      6.492744 -2.167296  1.037029
H      6.401811 -2.835578 -0.601317
C      6.669555  1.218561  3.350681
H      5.419604 -0.534422  3.632812
H      4.548149  0.906074  3.066174
H      4.542673 -3.625841 -1.501257
H      2.973435 -3.951979 -3.330447
H      1.522046 -2.073073 -4.110238
H      1.767579  0.157948 -3.026174
H      1.138998  2.146853 -0.865773
H      2.875172  2.220236  1.546770
H      3.269856  4.346611  2.762229
H      5.298022  5.702014  2.200731
H      6.821266  4.944993  0.462668
H      6.734761  2.426240 -3.285118
H      5.521991  3.596777 -2.725139
H      5.252663  1.859314 -2.497787
H      8.481329  3.848130 -0.394270
H      7.504165  4.739895 -1.585184
H      8.542641  3.406459 -2.105280
H      6.661044  0.570359 -0.745472
H      7.949056  1.418126  0.125981
H      8.113452  1.118489 -1.617193
O     -2.575042 -4.190647  2.726191
C     -1.947356 -3.723446  1.779703
N     -2.485656 -3.495165  0.553311
C     -3.872892 -3.696383  0.256469
C     -4.849931 -2.630906  0.682315
N     -4.340592 -1.564596  1.338272
C     -5.206059 -0.494362  1.806293
H     -6.148062 -0.941735  2.129428
C     -4.559351  0.222459  3.007444
C     -5.460362  1.308018  3.537561
C     -5.251604  2.644432  3.188337
C     -6.120233  3.640037  3.629663
C     -7.210495  3.310222  4.431239
C     -7.423716  1.980726  4.791722
C     -6.555289  0.988302  4.346528
C     -5.426289  0.533561  0.685577
N     -6.680186  0.857260  0.335113
C     -6.918259  1.937474 -0.623221
O     -4.425106  1.059365  0.153864
O     -6.057845 -2.751460  0.445840
C     -4.184816 -4.403731 -1.046664
C     -4.393715 -5.119079  0.243854
C     -0.456326 -3.401887  1.917663
H     -0.289578 -3.154593  2.972523
N     -0.028323 -2.291166  1.054083
C     -0.658050 -1.110348  1.135576
C     -0.414812 -0.056861  0.051246
H      0.338137 -0.383621 -0.672239
C      0.031120  1.255838  0.706260
N      0.286653  2.285006 -0.291802
C     -0.644061  3.138214 -0.748926
N     -1.535091  3.705493  0.092051
C     -1.208047  4.030110  1.479146
C     -2.891015  4.050596 -0.332523
N     -0.662350  3.457881 -2.055500
C     -0.184663  2.531926 -3.083714
C     -0.992390  4.804717 -2.523647
N     -1.669147  0.153427 -0.661736
C     -2.089309 -0.821090 -1.548334
N     -3.367127 -0.619272 -2.009483
C     -4.096101 -1.449784 -2.874632
C     -5.494141 -1.371959 -2.809345
C     -6.281288 -2.151985 -3.645438
C     -5.691025 -3.023567 -4.559127
C     -4.301965 -3.087213 -4.633482
C     -3.499049 -2.305164 -3.808286
O     -1.357782 -1.756250 -1.896034
O     -1.521355 -0.894565  2.005057
C      1.116181 -2.653522  0.196672
C      1.700740 -3.859368  0.925534
H      2.272094 -4.504903  0.249110
N      2.558389 -3.396367  2.021436
C      3.224162 -4.266146  2.791708
C      4.096689 -3.662036  3.903183
F      3.663531 -2.418553  4.285816
F      5.378222 -3.512416  3.424020
O      3.193906 -5.492552  2.687496
C      0.443699 -4.564552  1.460778
H     -1.900233 -3.110853 -0.182118
H     -3.339637 -1.464212  1.486531
H     -3.597130  0.641329  2.694600
H     -4.367344 -0.532393  3.778984
H     -4.399063  2.903459  2.564846
H     -5.942575  4.675023  3.349830
H     -7.887749  4.085334  4.778966
H     -8.267967  1.716442  5.422763
H     -6.726007 -0.048884  4.628691
H     -7.427151  1.545763 -1.511800
H     -5.967739  2.383156 -0.915009
H     -7.556160  2.700449 -0.161723
H      0.952371  1.068332  1.268778
H     -0.734401  1.574515  1.417769
H     -3.595734  3.650688  0.404296
H     -3.110207  3.588355 -1.296248
H     -3.028691  5.136717 -0.403707
H     -0.196523  5.139007 -3.198880
H     -1.045048  5.495585 -1.681079
H     -1.943430  4.818060 -3.069231
H     -2.407845  0.619971 -0.134311
H     -3.908368  0.081557 -1.507011
H     -5.962013 -0.708817 -2.084930
H     -7.363224 -2.083413 -3.573418
H     -6.306144 -3.639343 -5.208351
H     -3.827157 -3.752442 -5.349868
H     -2.421176 -2.360891 -3.880477
H      1.826740 -1.827827  0.120795
H      0.781151 -2.941603 -0.806718
H      2.795734 -2.401778  2.067517
H      4.123740 -4.318981  4.779716
H      0.655030 -5.265465  2.268553
H     -0.025939 -5.109849  0.634302
H     -1.774742  3.403666  2.180012
H     -1.471788  5.078448  1.663809
H     -0.138561  3.900326  1.655188
H      0.850117  2.750747 -3.372234
H     -0.831734  2.634181 -3.961378
H     -0.246840  1.505557 -2.716884
C     -7.882737  0.227710  0.898312
H     -8.088398  0.592471  1.911829
H     -7.783921 -0.860557  0.905293
H     -8.727289  0.489420  0.257472
H     -3.324909 -4.669378 -1.653578
H     -5.054755 -4.040593 -1.583317
H     -5.411264 -5.257948  0.592713
H     -3.674055 -5.877033  0.534492
H      6.701242  2.106839  2.710645
H      7.610698  0.670194  3.239784
H      6.580116  1.541848  4.392976
