157
temp
O     -2.526895 -2.008728  0.543511
C     -2.925311 -1.555603 -0.574817
C     -2.039310 -1.695699 -1.767799
C     -2.331829 -1.123660 -3.037968
N     -3.504794 -0.408071 -3.276423
C     -3.742742  0.108015 -4.630498
C     -3.976456  0.478058 -2.232606
O     -5.308272  0.692065 -2.407885
C     -5.867722  1.902876 -1.844001
O     -3.236020  1.324857 -1.705214
C     -1.405642 -1.325763 -4.080507
C     -0.255363 -2.081963 -3.892438
C      0.018669 -2.659900 -2.656172
C     -0.874974 -2.453623 -1.614717
N     -4.102573 -1.012237 -0.822823
C     -5.001618 -0.748962  0.221943
C     -4.688035  0.304986  1.093573
C     -5.545809  0.693723  2.112526
C     -6.752623  0.022485  2.268275
C     -7.072382 -1.028000  1.410844
C     -6.225347 -1.452423  0.377936
C     -6.603939 -2.663375 -0.491631
C     -6.671393 -2.275146 -1.980830
C     -5.569910 -3.790446 -0.293350
C     -7.976609 -3.241572 -0.111464
H     -3.715738 -0.715651 -5.349883
H     -3.002154  0.867012 -4.930468
H     -4.736029  0.555789 -4.660102
C     -5.955838  2.980616 -2.906040
H     -5.265187  2.222758 -0.990767
H     -6.861269  1.613932 -1.485908
H     -1.575424 -0.883200 -5.054015
H      0.432159 -2.211532 -4.724555
H      0.913672 -3.256064 -2.506396
H     -0.687976 -2.876313 -0.632409
H     -1.567570  1.974323 -2.235519
H     -3.745360  0.820851  0.938602
H     -5.272174  1.510531  2.775779
H     -7.444863  0.302724  3.057513
H     -8.015676 -1.536959  1.570184
H     -6.965084 -3.151493 -2.571687
H     -5.710944 -1.906607 -2.343748
H     -7.419758 -1.489695 -2.137344
H     -5.542525 -4.106633  0.756254
H     -4.565147 -3.479854 -0.585544
H     -5.852187 -4.659100 -0.900536
H     -8.000320 -3.601532  0.923121
H     -8.189022 -4.094910 -0.764435
H     -8.781313 -2.510181 -0.246503
O      2.730497 -0.265257  3.447543
C      2.186923 -1.215480  2.889206
N      2.855803 -2.298716  2.423903
C      4.281893 -2.435489  2.488322
C      5.140545 -1.595456  1.573844
N      4.502699 -0.630349  0.875295
C      5.178487  0.257149 -0.060483
H      6.249949  0.036528 -0.003273
C      4.695814  0.003102 -1.498437
C      4.945335 -1.424760 -1.906271
C      6.196864 -1.823915 -2.383554
C      6.442955 -3.156090 -2.705497
C      5.438311 -4.110085 -2.551558
C      4.186349 -3.721564 -2.079698
C      3.942744 -2.387702 -1.759636
C      4.920182  1.720608  0.355809
N      5.522379  2.190454  1.461055
C      5.181220  3.542777  1.912893
O      4.157255  2.438544 -0.324423
O      6.362348 -1.776704  1.529392
C      4.887262 -2.749422  3.844364
C      4.797041 -3.819450  2.808410
C      0.662878 -1.260680  2.705797
H      0.359939 -2.179022  2.184105
N      0.191881 -0.095463  1.930528
C      0.720306  0.164170  0.726777
C      0.261799  1.398226 -0.050480
H     -0.699180  1.781838  0.301748
C      0.154517  1.024511 -1.540779
N     -0.547408  2.050243 -2.303093
C     -0.011776  3.205922 -2.729150
N      1.255776  3.247996 -3.196754
C      1.861087  2.132836 -3.920265
C      2.130777  4.397859 -2.973711
N     -0.760587  4.322971 -2.731580
C     -1.945807  4.466522 -1.883286
C     -0.603318  5.359384 -3.754876
N      1.261673  2.425961  0.156334
C      0.953608  3.711251  0.518600
N      2.063436  4.536758  0.517088
C      2.081330  5.931693  0.644009
C      1.077252  6.668906  1.286654
C      1.194523  8.053327  1.378109
C      2.298219  8.722586  0.855312
C      3.300567  7.985435  0.227014
C      3.193805  6.605331  0.115432
O     -0.186067  4.077934  0.812801
O      1.616318 -0.549351  0.240704
C     -0.840118  0.672940  2.650238
C     -1.330330 -0.307199  3.714042
H     -1.711733  0.217893  4.594648
N     -2.396116 -1.152483  3.188141
C     -3.246984 -1.772488  4.015234
C     -4.253177 -2.674266  3.275013
F     -5.394570 -2.785983  4.014868
F     -3.700502 -3.939993  3.196603
O     -3.253870 -1.688592  5.243744
C     -0.060581 -1.105772  4.051104
H      2.347241 -2.962303  1.855477
H      3.485645 -0.613777  0.856860
H      5.223320  0.696132 -2.163257
H      3.627184  0.234016 -1.556672
H      6.985637 -1.083335 -2.501393
H      7.420610 -3.450577 -3.077599
H      5.629705 -5.149900 -2.802014
H      3.396099 -4.458425 -1.960859
H      2.965585 -2.085143 -1.390084
H      4.188248  3.562942  2.380271
H      5.187924  4.236281  1.068575
H      5.923914  3.863505  2.645770
H     -0.419218  0.100316 -1.641265
H      1.154510  0.834278 -1.933371
H      1.655101  5.112461 -2.300162
H      2.383493  4.898461 -3.916611
H      3.057548  4.043489 -2.504421
H      0.072411  5.019665 -4.540686
H     -0.221910  6.290592 -3.319831
H     -1.585624  5.556855 -4.198896
H      2.215407  2.206104 -0.125880
H      2.930084  4.112709  0.194903
H      0.220161  6.161714  1.708374
H      0.408562  8.613032  1.878424
H      2.378608  9.802259  0.938626
H      4.170952  8.486634 -0.187607
H      3.972986  6.036512 -0.387760
H     -1.643771  0.992344  1.983070
H     -0.397577  1.556463  3.127399
H     -2.472068 -1.335668  2.171971
H     -4.506489 -2.342635  2.260950
H     -0.282339 -2.068447  4.516240
H      0.562089 -0.512607  4.729136
H      2.302053  2.519833 -4.846959
H      1.103402  1.389880 -4.177279
H      2.658106  1.658264 -3.333160
H     -2.018238  5.513734 -1.572635
H     -1.850542  3.848331 -0.990497
H     -2.856519  4.196489 -2.432989
C      6.321124  1.388945  2.387918
H      5.712476  1.070497  3.245068
H      7.151890  1.999140  2.754056
H      6.730138  0.502032  1.906336
H      4.185574 -2.773300  4.671694
H      5.860316 -2.314480  4.045701
H      5.708989 -4.113195  2.300327
H      4.041197 -4.588938  2.931830
H     -6.563128  2.644846 -3.752771
H     -4.958931  3.244633 -3.273480
H     -6.418210  3.879850 -2.484393
