157
temp
O      3.084767 -1.150074  1.311522
C      3.758128 -0.196514  0.844460
C      3.753701  1.116768  1.562791
C      4.409048  2.256591  1.061698
N      5.117713  2.233561 -0.163550
C      6.575885  2.272400  0.031182
C      4.553320  1.327640 -1.148614
O      5.517773  1.042528 -2.119484
C      5.114229  1.195692 -3.492936
O      3.365599  1.569241 -1.517902
C      4.390017  3.444149  1.802343
C      3.736099  3.507755  3.024385
C      3.082542  2.380641  3.527339
C      3.096020  1.202137  2.796694
N      4.530166 -0.247566 -0.247992
C      4.538791 -1.451662 -1.005729
C      3.538977 -1.590793 -1.976265
C      3.415876 -2.740454 -2.744462
C      4.301592 -3.787549 -2.528439
C      5.322789 -3.641241 -1.593408
C      5.499601 -2.479327 -0.827429
C      6.748683 -2.339471  0.062999
C      7.671099 -1.294385 -0.595361
C      6.422292 -1.909708  1.506848
C      7.541710 -3.653940  0.162298
H      6.825952  3.162383  0.615162
H      7.077119  2.336408 -0.934809
H      6.946550  1.389486  0.574499
C      5.289681  2.628166 -3.964642
H      4.079355  0.862834 -3.617402
H      5.769024  0.517400 -4.050867
H      4.887318  4.321968  1.398359
H      3.725844  4.440909  3.581569
H      2.568139  2.424525  4.482963
H      2.597467  0.313090  3.171442
H      1.969196  2.206996 -0.696090
H      2.851541 -0.760969 -2.108316
H      2.623638 -2.820531 -3.484751
H      4.215523 -4.713635 -3.090509
H      6.008589 -4.470171 -1.467634
H      8.552730 -1.120432  0.034164
H      7.149613 -0.347748 -0.743444
H      8.011470 -1.651429 -1.574605
H      5.665213 -2.564145  1.949421
H      6.064698 -0.881089  1.557941
H      7.332121 -1.980558  2.114361
H      8.413408 -3.485277  0.803369
H      7.913238 -3.990138 -0.811043
H      6.946471 -4.458012  0.608646
O     -3.387401 -3.575969  1.510071
C     -2.652380 -3.035278  0.688441
N     -3.097947 -2.429260 -0.443326
C     -4.487074 -2.295411 -0.766723
C     -5.261819 -1.167170 -0.132807
N     -4.574936 -0.347303  0.696985
C     -5.233610  0.755950  1.373006
H     -6.287152  0.483932  1.462040
C     -4.642052  0.978064  2.779464
C     -4.907472 -0.186146  3.699114
C     -6.203046 -0.427343  4.168517
C     -6.466299 -1.509897  5.001593
C     -5.434105 -2.369104  5.378028
C     -4.141870 -2.135710  4.916604
C     -3.880775 -1.051022  4.080839
C     -5.068515  2.054596  0.572151
N     -6.149132  2.833817  0.403945
C     -6.046359  4.086990 -0.345058
O     -3.941903  2.363953  0.132072
O     -6.465844 -1.022224 -0.373169
C     -4.879215 -2.650793 -2.187662
C     -5.264780 -3.558835 -1.070868
C     -1.131157 -3.066184  0.870557
H     -0.947437 -3.086124  1.951530
N     -0.455852 -1.919105  0.251445
C     -0.833482 -0.667683  0.551600
C     -0.300785  0.481440 -0.307218
H      0.372706  0.118442 -1.088121
C      0.447659  1.472194  0.587126
N      1.103761  2.503693 -0.204014
C      0.474206  3.608224 -0.635934
N      0.688450  4.051582 -1.887492
C      1.024521  3.145996 -2.987535
C      0.718759  5.476732 -2.216324
N     -0.343453  4.299032  0.187838
C     -1.539873  4.982145 -0.301594
C     -0.114893  4.380268  1.628850
N     -1.426573  1.142040 -0.955084
C     -2.043103  0.485381 -2.006649
N     -3.226368  1.067947 -2.391605
C     -4.121442  0.585744 -3.360099
C     -5.473749  0.919894 -3.206381
C     -6.412666  0.492631 -4.135848
C     -6.021115 -0.275224 -5.231358
C     -4.674319 -0.592305 -5.390338
C     -3.720001 -0.163682 -4.472131
O     -1.543505 -0.507671 -2.548534
O     -1.668594 -0.429195  1.441411
C      0.612239 -2.319205 -0.681027
C      0.887363 -3.769035 -0.298441
H      1.253725 -4.344228 -1.155720
N      1.882331 -3.824650  0.777670
C      2.362925 -5.011400  1.170616
C      3.426911 -5.006620  2.276578
F      3.544665 -3.789902  2.894201
F      4.644804 -5.290156  1.701940
O      2.015784 -6.107020  0.727217
C     -0.492266 -4.274878  0.158938
H     -2.425999 -2.021361 -1.085497
H     -3.577338 -0.474088  0.846315
H     -5.097138  1.889445  3.188919
H     -3.565876  1.161640  2.685127
H     -7.011369  0.242602  3.880133
H     -7.477293 -1.682948  5.360606
H     -5.638266 -3.215284  6.028275
H     -3.332608 -2.802518  5.201971
H     -2.873503 -0.879329  3.710077
H     -5.048824  4.171933 -0.775470
H     -6.231758  4.940405  0.318141
H     -6.793029  4.095415 -1.146870
H      1.212632  0.925465  1.143716
H     -0.245986  1.899965  1.315504
H     -0.145274  5.766883 -2.826272
H      1.632457  5.678841 -2.786910
H      0.738640  6.074327 -1.303771
H     -0.141333  5.435111  1.928534
H      0.864421  3.967052  1.879831
H     -0.893335  3.844252  2.187455
H     -2.053228  1.645857 -0.327661
H     -3.614263  1.738891 -1.731653
H     -5.788538  1.503427 -2.343766
H     -7.457821  0.753952 -3.995117
H     -6.755915 -0.616348 -5.954491
H     -4.352804 -1.178998 -6.246839
H     -2.675985 -0.411530 -4.610852
H      1.495269 -1.692288 -0.550031
H      0.268047 -2.258282 -1.720865
H      2.345342 -2.958749  1.070844
H      3.211194 -5.772029  3.031285
H     -0.433394 -5.150632  0.805666
H     -1.074825 -4.538449 -0.731381
H      2.095295  3.180751 -3.217583
H      0.454387  3.453747 -3.871430
H      0.751391  2.121779 -2.728454
H     -1.753585  4.674276 -1.327033
H     -1.430581  6.073127 -0.261265
H     -2.386722  4.688009  0.329368
C     -7.475943  2.508882  0.946861
H     -7.433475  2.314640  2.022964
H     -7.917170  1.645731  0.435868
H     -8.124164  3.372181  0.787095
H     -4.062978 -2.948933 -2.838450
H     -5.645206 -2.028218 -2.637467
H     -6.301711 -3.568282 -0.753384
H     -4.711690 -4.483490 -0.944507
H      5.020233  2.710416 -5.023975
H      6.329271  2.951437 -3.846778
H      4.646384  3.303360 -3.391104
