157
Coordinates from ORCA-job TS1_Sa_anti_folded_cs6
  O   3.14030881762524     -3.85860001373430      1.08414570258918
  C   2.43583397255809     -2.91006254876504      1.41484381165886
  N   2.91217211807057     -1.78092852158059      2.00523355637564
  C   4.30126131658534     -1.54063109596735      2.25694184128732
  C   5.14097210089831     -1.00870156619014      1.12483628911276
  N   4.52546990159790     -0.85362926269554     -0.07070902577603
  H   3.53037106882408     -1.03008047702971     -0.17219304733736
  C   5.26239851087459     -0.37038937407776     -1.22418407896992
  H   6.28817012386580     -0.73002311955456     -1.11732163012432
  C   4.66204139812472     -0.92371444405649     -2.53154326373119
  C   4.83822627770788     -2.41691523977513     -2.64827334955958
  C   3.75363723645829     -3.28463941009564     -2.51187803227411
  C   3.93448377187837     -4.66414871401142     -2.59857272153469
  C   5.20276261383250     -5.19166138358792     -2.82324998115746
  C   6.29176384742177     -4.33174883904515     -2.96381917002180
  C   6.10901341967494     -2.95541740310084     -2.87672672890065
  C   5.23074691326733      1.16261617904012     -1.27682105022774
  N   6.37183738459190      1.80758819969665     -1.55996589472523
  C   6.40416543351822      3.26978862281310     -1.60876878332044
  C   7.64303152528498      1.12265978591258     -1.83388571625737
  O   4.14927342167121      1.76012280303163     -1.08832259568107
  O   6.33644212982502     -0.74571413774847      1.29782575852043
  C   4.65246757530660     -1.04118946211446      3.64369151316380
  C   5.00589401753334     -2.43575480287706      3.25619780421199
  C   0.91592929769610     -2.95893201879424      1.22454830351610
  H   0.73628918814967     -3.58030971831345      0.34024196253101
  N   0.32509169511966     -1.62437053744303      1.03624228987014
  C   0.75926796338879     -0.87218601637768      0.00726971125425
  C   0.33505267954594      0.59326507649055     -0.11859683425169
  H   -0.49439862421001      0.83947847742216      0.55129643048056
  C   -0.05518152908717      0.89264300143965     -1.57991599790430
  C   -0.19511649092482      3.37479689437764     -1.51784809370712
  N   1.01562291493023      3.66522371338507     -2.03205451611801
  C   1.96856931710124      4.52067214174003     -1.32325262196549
  C   1.51939803296429      3.04686824954147     -3.25598214761063
  N   -0.87703348494040      4.31713886138046     -0.84338484085352
  C   -1.82852139439839      3.99065118294822      0.21990861379455
  C   -0.75968668991015      5.74192001089244     -1.15430308797412
  N   1.48511150271765      1.42831573630456      0.22029511519622
  H   2.23714300597011      1.40797384071095     -0.46963678375005
  C   1.90116670235833      1.53181985576458      1.53505534919375
  N   3.15664017762177      2.07868278954569      1.65103906135002
  H   3.67537741539630      2.17114771205869      0.77925066511306
  C   3.91031211402625      2.26890669713464      2.81741832181412
  C   3.36752988091177      2.28522321212620      4.10823910924451
  C   4.20777079433658      2.48185012928948      5.20119409558047
  C   5.57651095233767      2.67540853226632      5.03604127035636
  C   6.10905629980519      2.67895991460025      3.74738145281096
  C   5.28737422174393      2.47784036027991      2.64742316982250
  O   1.19117362448804      1.18895207431194      2.48584732280346
  O   1.58749821822859     -1.32066729618528     -0.80588013168914
  C   -0.65204973510784     -1.30315849337310      2.09603846171085
  C   -1.09251178677700     -2.67964585118406      2.58873917765824
  H   -1.43347472071709     -2.63603759459197      3.63090727748290
  N   -2.17713488653690     -3.17191900480999      1.73657233303771
  C   -2.74871540088296     -4.37503828192965      1.90547945034493
  C   -3.95204226343084     -4.61109334353148      0.96936649639883
  F   -5.06288824796644     -4.83142643644163      1.74595839426462
  F   -3.72373145702202     -5.76532255836302      0.26238241784195
  O   -2.38852944352654     -5.25001967956529      2.68894267991050
  C   0.19555421097237     -3.51143240102543      2.47066051501901
  H   2.25923963286944     -1.05516532956860      2.27555829244392
  H   5.16755603949277     -0.42160270482916     -3.36664966687427
  H   3.60110131781434     -0.65171354970489     -2.57868657674370
  H   2.76412052074681     -2.87705402183309     -2.32442918536051
  H   3.08018866886593     -5.32640634548023     -2.48594736665326
  H   5.34411131780697     -6.26682387567368     -2.89051732848072
  H   7.28446173082115     -4.73508356736573     -3.14486494904371
  H   6.96190145424173     -2.28824412745009     -2.99034456787718
  H   5.44553010734175      3.66673859917311     -1.27638199628489
  H   6.60589111808691      3.61080199070933     -2.63126776716553
  H   7.19994645966005      3.63710131107080     -0.95147543749834
  H   7.52645715860865      0.35096252449819     -2.60024919058916
  H   8.06094250465963      0.67647860596558     -0.92424565217369
  H   8.34906972842221      1.86457908963484     -2.21106797520389
  H   3.81166898606981     -0.88888354586735      4.31342347021279
  H   5.44396820952166     -0.30137225584866      3.69406840001075
  H   4.40665811695180     -3.24901764968135      3.65170385636397
  H   6.04551319820382     -2.66027059724126      3.04332744854159
  H   -0.73867830527267      0.12550407234990     -1.94960404974447
  H   0.84071962670575      0.84566991371298     -2.20574461995841
  H   1.61323630317338      4.72084436857053     -0.31104916850526
  H   2.12818992189759      5.46868498144547     -1.85119793052707
  H   2.92257433702408      3.98467936092161     -1.25726857730500
  H   0.70385772624344      2.56608997918232     -3.79918721617729
  H   2.30669163911265      2.31342829161151     -3.03530553486632
  H   1.94922168496475      3.83300920586265     -3.88761266609974
  H   -1.76590568405516      2.93307490391248      0.47879793795152
  H   -2.85397923270762      4.22030832460720     -0.08936136557901
  H   -1.58306225267195      4.58896557067601      1.10560250360467
  H   -0.21968169185651      6.28199010290043     -0.36735620314498
  H   -1.77024732982517      6.15855433543924     -1.23252394319756
  H   -0.24845510751911      5.87863655853154     -2.10821464629171
  H   2.30588698272213      2.13782384053836      4.25222448733944
  H   3.77638759392165      2.48636796768464      6.19875704598135
  H   6.21956014616677      2.82688325116788      5.89778868100015
  H   7.17394288144837      2.83132217321947      3.59481986739566
  H   5.71168002026558      2.46578510958898      1.64544460800274
  H   -1.48390795263809     -0.71235423206802      1.70773993171762
  H   -0.17200543363816     -0.74903777053371      2.91004380280452
  H   -2.73580712643617     -2.48233759030474      1.23216444944355
  H   -4.16910261292208     -3.79819921655722      0.26558929405580
  H   0.00646989389119     -4.58163256222046      2.39314846649270
  H   0.79766914009502     -3.33104179697440      3.36806131099557
  C   -4.20108342081933      0.99933742367803     -1.27659895125116
  C   -4.98715457636211      2.07124749179472     -0.60596589879413
  C   -5.79113273533670      1.80792480852291      0.53152328681186
  N   -5.76508090196300      0.57045726427481      1.13847633047855
  C   -6.87940466973774      0.11595217933875      1.96024829836303
  H   -6.87704352435084      0.57289851557338      2.96079769577044
  H   -6.79474724191300     -0.96603217882735      2.07283334723533
  H   -7.83176363695000      0.35396275179384      1.47220272942598
  C   -4.62995448651786     -0.29876746219364      0.93515488452101
  O   -4.68266964154579     -1.48806334651573      1.30419114394820
  O   -3.38446171407762      0.41379150677037      1.19507419966035
  C   -3.32639044945035      1.14815191711011      2.43446496487545
  C   -3.59014887265661      0.32097492542322      3.68252201572404
  H   -3.43943106412983      0.95191375291546      4.56600200479839
  H   -4.61341547495024     -0.06192924170342      3.70712932161317
  H   -2.90552677678089     -0.53035023416701      3.74761242720683
  H   -2.30219535892469      1.54119970737462      2.45747501284659
  H   -4.01460090565696      2.00517484717163      2.38992536679332
  C   -6.62345088725782      2.83181445362915      1.02292036377708
  H   -7.24240141343874      2.65170884538739      1.89539377221212
  C   -6.65184274767944      4.07704376069326      0.41055436812700
  H   -7.30304262855132      4.84904702383278      0.81261579099545
  C   -5.85322082159165      4.34303225550574     -0.70273537989898
  H   -5.87839467625185      5.31707266113727     -1.18213185974895
  C   -5.03539045759133      3.33524692619302     -1.19758806437155
  H   -4.42258679844968      3.50187368757728     -2.07926421698336
  N   -4.50028299846879     -0.23691780897571     -0.84798208800430
  C   -3.90792864371934     -1.37520127760660     -1.44174255323199
  C   -2.55365708453001     -1.61347055713985     -1.19639519027152
  H   -2.03590072744722     -0.87791028106568     -0.59326109939573
  C   -1.90055974501780     -2.74044839479254     -1.67550390680975
  H   -0.84439282651918     -2.89514110379982     -1.47004896892090
  C   -2.62678512942241     -3.66519059439489     -2.41363613913882
  H   -2.15084513653816     -4.56335660227091     -2.79715304566596
  C   -3.97918186537076     -3.44165826047259     -2.66109788698834
  H   -4.51251539063242     -4.18573472353754     -3.24027794091286
  C   -4.66218920581520     -2.30850073677763     -2.19642956627896
  C   -6.14833636986160     -2.10549384299473     -2.53588062265488
  C   -6.70840048284827     -3.25588966604169     -3.38777777634517
  H   -6.19315152535628     -3.34497231822538     -4.35064485780359
  H   -6.64836883010516     -4.21811129125735     -2.86740652603891
  H   -7.76519455503379     -3.05505798392351     -3.59321550063027
  C   -6.32952467033579     -0.80805476819132     -3.35049820755123
  H   -5.72286039010293     -0.83907283756681     -4.26287519530840
  H   -7.38121650115473     -0.70337897019120     -3.64256617548286
  H   -6.04651742651504      0.07663258373686     -2.77715556233196
  C   -6.99384134710873     -2.03900400782105     -1.25054111063334
  H   -6.68125503256353     -1.21225140009375     -0.61221009910738
  H   -6.89673573207257     -2.96964195472854     -0.67915112008934
  H   -8.05041162259899     -1.90569053141745     -1.51303205713657
  O   -3.41735607537538      1.28032161864012     -2.21719888343139
  H   -1.77898617269727      2.09031716852760     -1.70895359303227
  N   -0.75587601949724      2.16519759975083     -1.70827215385063
