157
temp
O     -6.663157 -0.085753  2.975747
C     -6.018003 -0.583345  2.043699
C     -6.134621 -1.990844  1.662283
C     -5.482075 -2.466346  0.505624
N     -4.717260 -1.607548 -0.251258
C     -4.073321 -2.102708 -1.459918
C     -4.285601 -0.330312  0.236041
O     -2.728247 -0.753762  1.157730
C     -2.667824 -1.909261  1.958856
O     -3.845777  0.519551 -0.575145
C     -5.658774 -3.819517  0.147925
C     -6.445777 -4.650205  0.929527
C     -7.082673 -4.178076  2.081339
C     -6.922345 -2.848749  2.433897
N     -5.174548  0.174475  1.270100
C     -5.038848  1.561776  1.634238
C     -4.074877  1.826044  2.611612
C     -3.887477  3.102172  3.112803
C     -4.681413  4.134124  2.621104
C     -5.638254  3.865340  1.653859
C     -5.864599  2.578498  1.128289
C     -7.018083  2.450215  0.112176
C     -8.332317  2.823845  0.831864
C     -6.776806  3.440641 -1.047366
C     -7.223992  1.066500 -0.522317
H     -4.804566 -2.624452 -2.084303
H     -3.243032 -2.786611 -1.231638
H     -3.697360 -1.251359 -2.022619
H     -5.164672 -4.229899 -0.723819
H     -6.557865 -5.691016  0.636955
H     -7.692922 -4.841023  2.686198
H     -7.405886 -2.438425  3.315128
H     -3.486735  0.991953  2.976665
H     -3.137457  3.286091  3.877782
H     -4.562836  5.148508  2.992935
H     -6.250631  4.690237  1.304457
H     -8.310464  3.845675  1.222527
H     -8.518899  2.140238  1.667506
H     -9.170463  2.746441  0.129500
H     -7.593592  3.359869 -1.773289
H     -5.838768  3.208590 -1.562679
H     -6.731457  4.479756 -0.710783
H     -8.027175  1.155037 -1.262834
H     -7.538791  0.316570  0.207794
H     -6.327634  0.713653 -1.038142
O      3.207556  1.587191 -2.938933
C      2.590179  0.640822 -2.458554
N      3.168740 -0.527095 -2.075186
C      4.580301 -0.764636 -2.135997
C      5.436250 -0.253677 -1.005153
N      4.809127  0.449589 -0.033876
C      5.550205  0.971827  1.101930
H      6.544264  1.242357  0.740667
C      4.863927  2.226628  1.678112
C      4.954301  3.405724  0.743676
C      6.139359  4.144743  0.664085
C      6.249932  5.218649 -0.213873
C      5.173555  5.568593 -1.028463
C      3.990542  4.838121 -0.956717
C      3.881503  3.763543 -0.075659
C      5.633828 -0.086252  2.210943
N      6.836699 -0.355906  2.741793
C      6.965549 -1.339705  3.818155
O      4.585295 -0.640095  2.603048
O      6.653996 -0.467075 -0.992754
C      5.010715 -2.077534 -2.758270
C      5.232049 -0.806786 -3.503621
C      1.066991  0.700949 -2.310217
H      0.810217  1.760721 -2.188236
N      0.567562 -0.081602 -1.169996
C      1.071197  0.143833  0.053714
C      0.741476 -0.827962  1.186473
H     -0.030986 -1.539145  0.887832
C      0.302957 -0.041563  2.430607
N     -0.709373  0.953173  2.091285
C     -0.465557  2.273649  2.189096
N     -0.995558  3.136207  1.310836
C     -1.258167  4.537661  1.642428
C     -1.499822  2.708535  0.008098
N      0.327593  2.737512  3.184125
C      0.298099  2.159637  4.526586
C      1.297422  3.811252  2.976419
N      1.953760 -1.563147  1.533475
C      2.452206 -2.497761  0.643715
N      3.723383 -2.913223  0.958505
C      4.534887 -3.799401  0.234396
C      5.918309 -3.710417  0.446701
C      6.788404 -4.560627 -0.221602
C      6.297680 -5.512666 -1.114019
C      4.922783 -5.609136 -1.311969
C      4.036046 -4.769616 -0.643231
O      1.795536 -2.917699 -0.316096
O      1.876578  1.069335  0.262890
C     -0.490891 -1.039210 -1.558378
C     -0.950469 -0.503856 -2.913585
H     -1.351443 -1.307215 -3.544487
N     -1.976981  0.523387 -2.715872
C     -2.595718  1.094923 -3.763341
C     -3.770534  2.003946 -3.356322
F     -4.935470  1.400366 -3.771917
F     -3.668118  3.188903 -4.034681
O     -2.306159  0.944781 -4.947637
C      0.340139  0.075126 -3.513000
H      2.583762 -1.271787 -1.709312
H      3.798826  0.560367 -0.039778
H      5.359918  2.466530  2.627081
H      3.819408  1.983288  1.902921
H      6.981343  3.875483  1.299522
H      7.175857  5.785534 -0.261200
H      5.258286  6.406790 -1.714638
H      3.148040  5.101822 -1.590654
H      2.960495  3.188759 -0.030113
H      7.714015 -2.089432  3.538989
H      6.005405 -1.827383  3.982976
H      7.288492 -0.847142  4.743166
H      1.179280  0.471900  2.833547
H     -0.066002 -0.743368  3.188054
H     -2.581360  2.529446  0.043275
H     -1.004328  1.788082 -0.299318
H     -1.279147  3.491766 -0.724728
H      1.396198  4.028955  1.911763
H      2.272346  3.473947  3.349747
H      1.016866  4.725933  3.513336
H      2.661995 -1.016739  2.024627
H      4.202131 -2.360222  1.666617
H      6.309093 -2.957800  1.128401
H      7.857333 -4.470433 -0.049108
H      6.977979 -6.173951 -1.642276
H      4.524483 -6.354712 -1.995151
H      2.970067 -4.859594 -0.803426
H     -1.293298 -1.058857 -0.809693
H     -0.072883 -2.045661 -1.670745
H     -2.476996  0.544786 -1.814839
H     -3.848088  2.208095 -2.282978
H      0.155801  0.798933 -4.306640
H      0.930596 -0.751791 -3.923890
H      4.204415 -2.730275 -3.078009
H      5.863726 -2.563218 -2.296996
H      6.242514 -0.416595 -3.560667
H      4.576553 -0.576007 -4.336645
C      8.076573  0.314933  2.323712
H      8.313524  0.094385  1.277665
H      8.888150 -0.061568  2.948446
H      8.014048  1.398869  2.466203
H      0.140007  2.966316  5.252921
H      1.242822  1.656298  4.769187
H     -0.524788  1.447221  4.611778
H     -2.269239  4.784418  1.303976
H     -0.544367  5.201116  1.139720
H     -1.207278  4.691878  2.720760
C     -3.025119 -1.691708  3.431146
H     -2.373123 -0.933829  3.882310
H     -2.898895 -2.625322  3.993285
H     -4.062019 -1.363875  3.555638
H     -1.642798 -2.325512  1.917938
H     -3.311055 -2.706530  1.548281
H     -1.571073  0.567180  1.653557
