157
temp
O     -7.189018 -0.138304  0.759570
C     -6.197483  0.440902  0.308097
C     -6.286042  1.646479 -0.519367
C     -5.157662  2.097541 -1.233338
N     -3.972779  1.398261 -1.140346
C     -2.805744  1.845102 -1.897755
C     -3.726453  0.451427 -0.114624
O     -2.960274  1.662766  1.251841
C     -3.438352  2.973960  1.340296
O     -2.771681 -0.343495 -0.229481
C     -5.289970  3.224456 -2.065107
C     -6.508319  3.881355 -2.152809
C     -7.623711  3.441445 -1.434749
C     -7.504277  2.320315 -0.629782
N     -4.921753 -0.023238  0.554002
C     -4.783389 -1.301480  1.227062
C     -4.760279 -2.395216  0.353814
C     -4.494582 -3.678562  0.794057
C     -4.234481 -3.870147  2.148363
C     -4.324752 -2.796978  3.020119
C     -4.640528 -1.483861  2.614147
C     -4.806370 -0.450741  3.748935
C     -3.422521 -0.136721  4.348521
C     -5.457487  0.871438  3.331474
C     -5.710920 -1.053100  4.848765
H     -2.494984  2.852225 -1.590537
H     -3.032889  1.850176 -2.969199
H     -1.990920  1.147424 -1.709390
H     -4.444966  3.593570 -2.633300
H     -6.587191  4.755579 -2.793557
H     -8.570113  3.967140 -1.510520
H     -8.351135  1.940705 -0.066476
H     -4.946967 -2.209609 -0.698849
H     -4.475547 -4.507524  0.092156
H     -3.986586 -4.856328  2.531352
H     -4.148212 -2.985933  4.073458
H     -3.538145  0.516759  5.222108
H     -2.807163  0.384782  3.608590
H     -2.902343 -1.046935  4.667134
H     -5.537394  1.511026  4.218189
H     -6.464800  0.713041  2.937030
H     -4.850357  1.387970  2.592074
H     -5.902489 -0.286691  5.607951
H     -5.259936 -1.909741  5.356139
H     -6.673356 -1.366965  4.429228
O      2.036384 -0.661987 -3.876658
C      1.681496 -1.362701 -2.931158
N      2.537233 -2.100872 -2.179515
C      3.955812 -2.063512 -2.381773
C      4.701417 -0.844600 -1.905344
N      3.982498  0.085840 -1.240122
C      4.598466  1.336320 -0.830017
H      5.258897  1.664720 -1.636002
C      3.512220  2.406861 -0.609672
C      4.124689  3.762201 -0.366883
C      4.539909  4.147858  0.911332
C      5.167114  5.374043  1.116750
C      5.384862  6.236136  0.043980
C      4.969724  5.864538 -1.233103
C      4.346515  4.635747 -1.435368
C      5.365008  1.145866  0.488327
N      6.640655  1.559821  0.561945
C      7.347622  1.530880  1.842434
O      4.760168  0.651174  1.460588
O      5.910569 -0.711353 -2.129275
C      4.687746 -3.384554 -2.276700
C      4.509633 -2.749306 -3.613672
C      0.197354 -1.488566 -2.587982
H     -0.269464 -0.541554 -2.887175
N     -0.067224 -1.767808 -1.169009
C      0.435913 -0.961383 -0.220112
C      0.366906 -1.425466  1.238089
H      0.033753 -2.466362  1.278720
C     -0.628925 -0.648367  2.112373
N     -0.591816  0.807777  2.031560
C      0.367059  1.601083  2.513717
N      1.125762  1.243428  3.581418
C      2.536120  1.606431  3.702841
C      0.564301  0.525563  4.723471
N      0.582798  2.797474  1.926594
C      1.016258  3.969733  2.689512
C      0.163027  3.074411  0.551917
N      1.730865 -1.417906  1.769450
C      2.590442 -2.389730  1.277497
N      3.920085 -2.136339  1.507183
C      4.983864 -2.999731  1.191266
C      4.853878 -4.393854  1.158469
C      5.960858 -5.181273  0.857050
C      7.204238 -4.608311  0.599749
C      7.335691 -3.222434  0.659807
C      6.238412 -2.422737  0.952739
O      2.161908 -3.404385  0.714340
O      1.068771  0.066115 -0.518822
C     -0.972491 -2.917044 -0.980162
C     -1.608469 -3.063184 -2.362040
H     -1.969292 -4.080649 -2.543282
N     -2.720991 -2.123116 -2.491468
C     -3.555395 -2.184333 -3.537712
C     -4.642988 -1.094582 -3.546838
F     -5.853198 -1.683943 -3.788263
F     -4.385751 -0.247662 -4.599416
O     -3.501310 -3.007710 -4.449602
C     -0.455560 -2.684463 -3.303067
H      2.183936 -2.639318 -1.394188
H      2.997459 -0.056705 -1.034666
H      2.887065  2.100430  0.237214
H      2.880164  2.432231 -1.504512
H      4.378362  3.477780  1.752558
H      5.483550  5.657531  2.117005
H      5.871865  7.194232  0.203039
H      5.131298  6.533158 -2.074314
H      4.027854  4.346897 -2.434785
H      8.282879  0.970142  1.736456
H      6.719638  1.054730  2.594646
H      7.585187  2.554641  2.158194
H     -0.516279 -1.025150  3.134443
H     -1.630045 -0.926029  1.768174
H      0.878072  1.038225  5.640702
H      0.922739 -0.511640  4.766898
H     -0.526526  0.538259  4.680510
H      0.114545  2.144335 -0.015484
H      0.905535  3.738247  0.094603
H     -0.813034  3.575143  0.528242
H      2.137145 -0.502548  1.924244
H      4.183001 -1.158388  1.645542
H      3.896625 -4.855443  1.361930
H      5.845059 -6.261576  0.829580
H      8.060389 -5.233185  0.363478
H      8.297551 -2.754162  0.469307
H      6.347613 -1.342834  0.987226
H     -1.713164 -2.716246 -0.200536
H     -0.408649 -3.824886 -0.730227
H     -2.836481 -1.410583 -1.758637
H     -4.719174 -0.493828 -2.631261
H     -0.792416 -2.431993 -4.309552
H      0.247262 -3.523617 -3.363408
H      4.074811 -4.244718 -2.025159
H      5.667440 -3.346412 -1.812209
H      5.371069 -2.279046 -4.074998
H      3.764747 -3.164363 -4.284679
C      7.366155  2.178944 -0.554661
H      8.418445  2.248822 -0.272221
H      6.994390  3.189944 -0.762885
H      7.295743  1.564202 -1.455642
H      0.960731  3.770687  3.760653
H      0.343589  4.803065  2.456055
H      2.038650  4.263384  2.421780
H      2.697989  2.380501  4.463825
H      2.920330  1.947697  2.740967
H      3.100820  0.711473  3.993100
C     -2.978018  3.650792  2.631805
H     -1.884252  3.665160  2.695071
H     -3.357533  3.106563  3.503641
H     -3.337536  4.685809  2.682722
H     -4.545527  2.998773  1.315953
H     -3.116642  3.595725  0.477711
H     -1.472661  1.257449  1.614461
