157
temp
O     -5.998067  1.907675  2.543531
C     -5.938837  1.109550  1.602890
C     -7.130876  0.463291  1.050469
C     -7.076845 -0.115100 -0.233082
N     -5.878759 -0.146391 -0.909000
C     -5.845744 -0.675245 -2.265717
C     -4.623779  0.007044 -0.237515
O     -4.319624 -1.756016  0.408740
C     -5.228950 -2.407503  1.264881
O     -3.595548  0.143226 -0.928480
C     -8.269776 -0.606117 -0.798522
C     -9.453903 -0.552472 -0.077755
C     -9.498384 -0.003934  1.206556
C     -8.335074  0.513477  1.754286
N     -4.740106  0.813422  0.981539
C     -3.643755  1.717175  1.284142
C     -3.465685  2.718145  0.316592
C     -2.552895  3.743456  0.481431
C     -1.801199  3.782564  1.652876
C     -1.980939  2.798647  2.610584
C     -2.896153  1.733393  2.478268
C     -3.003579  0.800958  3.703714
C     -1.603733  0.289143  4.106423
C     -3.587274  1.615931  4.877845
C     -3.868866 -0.443773  3.500112
H     -6.526370 -0.102261 -2.905057
H     -6.142629 -1.732491 -2.298402
H     -4.831634 -0.573769 -2.647399
H     -8.273049 -1.045380 -1.788621
H     -10.358912 -0.952308 -0.527542
H     -10.430440  0.025687  1.761758
H     -8.333582  0.972225  2.738284
H     -4.086727  2.682669 -0.572808
H     -2.446539  4.509760 -0.281244
H     -1.083880  4.580289  1.826305
H     -1.400096  2.872413  3.523443
H     -1.198462 -0.387614  3.349306
H     -1.688887 -0.277413  5.040689
H     -0.875820  1.087876  4.270670
H     -4.569740  2.015245  4.610997
H     -2.933411  2.448345  5.157898
H     -3.698577  0.963145  5.751969
H     -3.591196 -0.979797  2.589818
H     -4.931776 -0.201856  3.452309
H     -3.724448 -1.112473  4.356758
O      2.587052 -4.356975 -1.230657
C      1.960605 -3.796691 -0.335386
N      2.519690 -3.357152  0.822565
C      3.924526 -3.420366  1.099430
C      4.809470 -2.334663  0.539913
N      4.212112 -1.398565 -0.229188
C      4.979797 -0.320030 -0.831957
H      5.926460 -0.731575 -1.189237
C      4.204579  0.260639 -2.030596
C      4.971954  1.375961 -2.691507
C      6.007010  1.090535 -3.587058
C      6.749448  2.116638 -4.164905
C      6.467215  3.445420 -3.852619
C      5.436100  3.740583 -2.963540
C      4.694368  2.711696 -2.387609
C      5.205657  0.810526  0.185583
N      6.457529  1.222480  0.434832
C      6.690311  2.396223  1.277885
O      4.207040  1.340491  0.717918
O      6.023428 -2.322297  0.777528
C      4.312482 -3.956253  2.463137
C      4.555855 -4.789143  1.251832
C      0.444524 -3.594504 -0.449782
H      0.220776 -3.560189 -1.523116
N     -0.016590 -2.362354  0.209071
C      0.567264 -1.200478 -0.120949
C      0.287460  0.054520  0.707556
H     -0.563330 -0.086430  1.378825
C      0.027862  1.240195 -0.232123
N     -0.942494  0.896370 -1.260376
C     -0.639170  0.879528 -2.569274
N     -1.228010 -0.009890 -3.386782
C     -1.671825 -1.330899 -2.945158
C     -1.526112  0.303004 -4.784906
N      0.245676  1.766252 -3.073991
C      0.341700  3.139336 -2.579366
C      1.172035  1.414707 -4.149522
N      1.471802  0.389071  1.494175
C      1.892251 -0.450064  2.507679
N      3.130571 -0.116975  3.002587
C      3.870019 -0.819293  3.966894
C      5.264090 -0.672296  3.933936
C      6.061391 -1.321496  4.866671
C      5.485737 -2.129775  5.845815
C      4.100039 -2.261745  5.886232
C      3.286158 -1.609601  4.964179
O      1.202480 -1.386965  2.926398
O      1.401804 -1.141975 -1.043708
C     -1.095466 -2.620693  1.186659
C     -1.636144 -3.979021  0.733011
H     -2.105815 -4.515715  1.568057
N     -2.611899 -3.747342 -0.335593
C     -3.072433 -4.718087 -1.138403
C     -4.070595 -4.183695 -2.183051
F     -5.082288 -5.086157 -2.357914
F     -3.405383 -4.093699 -3.389079
O     -2.745048 -5.904307 -1.156486
C     -0.360391 -4.693588  0.261444
H      1.930423 -2.902549  1.514349
H      3.209726 -1.417403 -0.399605
H      3.232734  0.621425 -1.676997
H      4.024796 -0.556903 -2.738694
H      6.229528  0.053977 -3.832939
H      7.548674  1.879214 -4.861865
H      7.045575  4.246843 -4.303943
H      5.207200  4.774272 -2.718367
H      3.891019  2.942831 -1.691584
H      7.290151  2.115206  2.151223
H      5.736278  2.805452  1.607680
H      7.237837  3.154297  0.705208
H      0.970988  1.499827 -0.720338
H     -0.309897  2.097555  0.360742
H     -2.564005  0.014039 -4.985330
H     -0.871983 -0.250819 -5.469043
H     -1.420425  1.373787 -4.964326
H      1.192928  0.332037 -4.286966
H      2.176083  1.748983 -3.860811
H      0.902858  1.900608 -5.095591
H      2.222143  0.849054  0.977302
H      3.661394  0.547763  2.442519
H      5.720594 -0.057650  3.160852
H      7.140208 -1.201057  4.819882
H      6.109168 -2.643641  6.571408
H      3.636093 -2.877276  6.652460
H      2.210445 -1.714358  5.012899
H     -1.863513 -1.841876  1.151471
H     -0.686651 -2.687610  2.200507
H     -3.220284 -2.893496 -0.205361
H     -4.499428 -3.202799 -1.945133
H     -0.551830 -5.548850 -0.383877
H      0.177704 -5.036682  1.152558
H      3.485090 -4.220427  3.114271
H      5.159313 -3.473270  2.938625
H      5.575339 -4.885208  0.893979
H      3.895177 -5.628160  1.061161
C      7.659422  0.616305 -0.152919
H      8.520622  0.950199  0.429938
H      7.799392  0.933540 -1.193671
H      7.612700 -0.473391 -0.096174
H     -0.472199  3.346815 -1.882129
H      0.258782  3.825463 -3.431041
H      1.303761  3.318087 -2.082728
H     -2.763013 -1.399575 -2.974853
H     -1.339985 -1.527418 -1.926919
H     -1.247542 -2.086887 -3.616829
C     -6.178124 -3.374996  0.558292
H     -5.632993 -4.224089  0.131983
H     -6.725818 -2.876115 -0.248301
H     -6.912181 -3.777644  1.267738
H     -5.825936 -1.672558  1.828297
H     -4.667839 -2.978219  2.031692
H     -1.879898  0.576193 -0.975045
