157
temp
O     -5.241689 -1.501809 -2.858219
C     -4.993544 -0.544241 -2.113353
C     -5.796642  0.681744 -2.102263
C     -5.503902  1.715618 -1.185162
N     -4.470267  1.577715 -0.294309
C     -4.123612  2.692075  0.578608
C     -3.495095  0.516006 -0.373369
O     -2.215608  1.217720 -1.412526
C     -2.517414  1.655604 -2.719464
O     -2.862275  0.214444  0.669337
C     -6.314094  2.871492 -1.205429
C     -7.365154  2.974483 -2.103830
C     -7.651355  1.948795 -3.008579
C     -6.861058  0.810503 -2.996521
N     -3.975269 -0.596242 -1.194661
C     -3.158920 -1.785011 -1.180252
C     -2.097644 -1.787547 -2.090875
C     -1.217004 -2.851442 -2.173287
C     -1.388659 -3.928466 -1.307779
C     -2.462146 -3.935634 -0.428264
C     -3.405501 -2.891557 -0.351784
C     -4.598170 -3.121827  0.596524
C     -4.076300 -3.211891  2.043166
C     -5.696757 -2.051619  0.571939
C     -5.274423 -4.457121  0.211203
H     -4.984633  2.987722  1.185248
H     -3.775848  3.560660  0.002446
H     -3.328684  2.363819  1.246132
H     -6.117897  3.692681 -0.527283
H     -7.969704  3.877881 -2.099606
H     -8.476333  2.041786 -3.707592
H     -7.048938 -0.010390 -3.681815
H     -1.981618 -0.926781 -2.738420
H     -0.417631 -2.839926 -2.907960
H     -0.703825 -4.772728 -1.329622
H     -2.585950 -4.801638  0.214696
H     -3.671480 -2.243680  2.353061
H     -3.291678 -3.967263  2.156779
H     -4.899573 -3.468374  2.720154
H     -6.467813 -2.344679  1.293271
H     -6.173084 -1.980808 -0.409942
H     -5.323742 -1.070176  0.865665
H     -4.610815 -5.317194  0.334861
H     -5.610768 -4.429146 -0.831394
H     -6.150000 -4.616009  0.850691
O      1.419107 -2.143988  3.408888
C      0.486163 -2.237973  2.614236
N      0.380754 -3.230189  1.696839
C      1.347047 -4.283880  1.591747
C      2.700089 -3.968494  1.006406
N      2.885728 -2.698858  0.581576
C      4.148088 -2.236454  0.022963
H      4.890592 -3.019337  0.214595
C      4.058195 -2.022815 -1.497215
C      3.757588 -3.315917 -2.204626
C      4.788687 -4.159660 -2.626911
C      4.503732 -5.384485 -3.225000
C      3.180769 -5.783196 -3.409076
C      2.145730 -4.946916 -2.995718
C      2.435817 -3.723235 -2.397935
C      4.555745 -0.937807  0.737721
N      4.939228 -1.012077  2.023013
C      5.211628  0.242389  2.731987
O      4.509869  0.148161  0.125395
O      3.574212 -4.839192  0.948759
C      1.328677 -5.351184  2.668401
C      0.801892 -5.666888  1.308835
C     -0.698738 -1.269141  2.656464
H     -1.399994 -1.460606  1.831590
N     -0.255935  0.133143  2.594466
C      0.630072  0.531721  1.672418
C      1.031513  2.006003  1.665883
H      1.064254  2.389828  2.695113
C     -0.000542  2.883376  0.899778
N     -0.070411  2.560178 -0.510840
C      0.776754  3.017371 -1.442973
N      1.302816  4.261531 -1.380714
C      2.654228  4.558552 -1.851255
C      0.557059  5.402023 -0.855061
N      1.074089  2.228436 -2.495044
C      1.296960  2.771402 -3.834591
C      1.079486  0.768678 -2.401051
N      2.343643  2.092448  1.068322
C      3.137043  3.190948  1.259905
N      4.411463  3.025531  0.758170
C      5.445146  3.962642  0.693899
C      6.693825  3.490589  0.254193
C      7.774177  4.353687  0.138152
C      7.638425  5.704795  0.455848
C      6.400802  6.172875  0.888202
C      5.304738  5.322103  1.010899
O      2.727529  4.213004  1.820827
O      1.113530 -0.256469  0.840696
C     -0.859402  0.963119  3.653568
C     -1.939725  0.065131  4.258797
H     -2.058207  0.267876  5.325343
N     -3.249213  0.276322  3.641847
C     -4.349240  0.176030  4.404982
C     -5.707243  0.415666  3.734954
F     -6.401935 -0.770282  3.740090
F     -5.596108  0.816199  2.431196
O     -4.368105 -0.066036  5.612461
C     -1.387614 -1.347041  4.025788
H     -0.369178 -3.193630  1.015300
H      2.129387 -2.024105  0.652041
H      5.013377 -1.610162 -1.838930
H      3.283114 -1.277978 -1.703715
H      5.823154 -3.854272 -2.482606
H      5.316072 -6.029037 -3.550072
H      2.958184 -6.738243 -3.876876
H      1.111006 -5.246881 -3.141641
H      1.631667 -3.070974 -2.067888
H      4.288420  0.814865  2.886141
H      5.913989  0.858133  2.162636
H      5.648446  0.006273  3.703546
H      0.290392  3.920599  1.073998
H     -1.000629  2.741096  1.319534
H      0.989613  5.761593  0.087390
H     -0.489233  5.130298 -0.701918
H      0.600790  6.215535 -1.589620
H      0.184683  0.335704 -2.864805
H      1.129227  0.458704 -1.355802
H      1.961537  0.394400 -2.934055
H      2.713732  1.251765  0.635925
H      4.652240  2.077718  0.469447
H      6.806693  2.438303  0.002325
H      8.729793  3.964962 -0.203205
H      8.483982  6.380147  0.366644
H      6.276318  7.223307  1.138482
H      4.351596  5.701646  1.352380
H     -1.281044  1.892231  3.260979
H     -0.110897  1.207787  4.418090
H     -3.318724  0.362913  2.621020
H     -6.288427  1.162303  4.289686
H     -2.160042 -2.117014  4.068142
H     -0.631980 -1.557358  4.790451
H      0.613493 -5.190052  3.468417
H      2.292000 -5.761272  2.950576
H      1.404894 -6.290412  0.657249
H     -0.274295 -5.736251  1.181325
C      4.931241 -2.233449  2.831483
H      5.791709 -2.210848  3.506131
H      5.009494 -3.125471  2.210239
H      4.009164 -2.300255  3.422344
H      2.347412  2.679610 -4.136983
H      0.996557  3.819670 -3.872803
H      0.679626  2.205315 -4.541884
H      3.204964  3.631501 -2.020975
H      3.173385  5.133037 -1.074368
H      2.642991  5.152848 -2.773791
C     -2.813003  3.150124 -2.833768
H     -1.983002  3.739813 -2.426918
H     -3.726141  3.424114 -2.296485
H     -2.944815  3.428840 -3.886477
H     -3.364005  1.084134 -3.136865
H     -1.657998  1.424829 -3.376015
H     -0.846532  1.918458 -0.823509
