157
temp
O     -7.219010 -1.036127  0.992134
C     -6.461765 -0.196389  0.488598
C     -6.915222  1.140497  0.097067
C     -6.106019  1.944201 -0.736555
N     -4.850985  1.511452 -1.095826
C     -3.995008  2.378337 -1.895153
C     -4.191671  0.442140 -0.393808
O     -3.530832  1.353828  1.085769
C     -4.400298  2.199692  1.794572
O     -3.151862 -0.050127 -0.882805
C     -6.631294  3.170624 -1.195691
C     -7.898189  3.576848 -0.808070
C     -8.688066  2.789035  0.035274
C     -8.189724  1.572515  0.471300
N     -5.152772 -0.501575  0.188116
C     -4.858033 -1.910440  0.000953
C     -5.222739 -2.374081 -1.270740
C     -5.014113 -3.683834 -1.661654
C     -4.406288 -4.554019 -0.760988
C     -4.071041 -4.102076  0.504936
C     -4.309816 -2.786069  0.950934
C     -3.929501 -2.489849  2.412322
C     -4.546830 -3.567351  3.330977
C     -2.393291 -2.545862  2.519915
C     -4.403549 -1.134000  2.943549
H     -3.095371  1.820767 -2.150618
H     -3.716622  3.289624 -1.345905
H     -4.504295  2.659683 -2.821946
H     -6.042973  3.815858 -1.836254
H     -8.274397  4.531563 -1.166659
H     -9.676602  3.121385  0.335839
H     -8.779693  0.921765  1.109520
H     -5.682908 -1.663680 -1.953253
H     -5.307127 -4.015876 -2.653978
H     -4.203507 -5.585122 -1.037767
H     -3.610575 -4.807602  1.188298
H     -4.171176 -4.573405  3.127000
H     -5.637804 -3.579048  3.227906
H     -4.304711 -3.329727  4.372981
H     -1.942120 -1.797050  1.860192
H     -2.000124 -3.527528  2.235568
H     -2.079400 -2.334916  3.549548
H     -3.951640 -0.302199  2.400233
H     -4.113551 -1.059264  3.998892
H     -5.492884 -1.045225  2.886591
O      2.540305 -2.098036 -4.427904
C      1.901735 -2.172734 -3.381859
N      2.441994 -2.533244 -2.186961
C      3.842190 -2.758190 -1.984282
C      4.729896 -1.555932 -1.782900
N      4.134905 -0.342372 -1.826770
C      4.914778  0.873676 -1.658276
H      5.874477  0.728316 -2.158675
C      4.189983  2.067020 -2.311622
C      5.015709  3.322960 -2.196027
C      6.009536  3.605023 -3.137955
C      6.817882  4.730594 -3.003396
C      6.646007  5.589184 -1.919180
C      5.657251  5.318168 -0.975727
C      4.847291  4.193725 -1.115526
C      5.098567  1.182227 -0.163811
N      6.336316  1.373101  0.315673
C      6.528572  1.817376  1.696759
O      4.078425  1.281055  0.551782
O      5.944521 -1.692835 -1.594164
C      4.210466 -3.994884 -1.188525
C      4.472452 -3.960736 -2.655065
C      0.398464 -1.874793 -3.362378
H      0.237105 -1.088043 -4.107735
N     -0.063601 -1.416848 -2.043737
C      0.451181 -0.282401 -1.547063
C      0.117994  0.137023 -0.122189
H     -0.658506 -0.496155  0.311292
C     -0.365355  1.591783 -0.126153
N     -0.863893  1.957636  1.188810
C     -0.079279  2.343722  2.204370
N     -0.314184  1.875039  3.444942
C     -0.122055  2.691352  4.642119
C     -0.836792  0.529106  3.670438
N      0.922542  3.228154  2.006643
C      2.173685  3.165112  2.760929
C      0.855499  4.271533  0.987151
N      1.325552  0.026546  0.692397
C      1.782352 -1.238057  1.022106
N      3.042395 -1.233937  1.570423
C      3.815633 -2.353844  1.912972
C      3.269640 -3.592295  2.271700
C      4.118158 -4.644564  2.604881
C      5.501501 -4.484830  2.603419
C      6.039943 -3.243251  2.268775
C      5.207659 -2.186534  1.925455
O      1.095448 -2.252174  0.855143
O      1.268467  0.392670 -2.200852
C     -1.084373 -2.319898 -1.477877
C     -1.708280 -2.895214 -2.742429
H     -2.241469 -3.833322 -2.550395
N     -2.636560 -1.902454 -3.293027
C     -3.397213 -2.193214 -4.354940
C     -4.424404 -1.131598 -4.778009
F     -4.097879 -0.700132 -6.039784
F     -4.410058 -0.029246 -3.959778
O     -3.342826 -3.229429 -5.016903
C     -0.481860 -3.108047 -3.646118
H      1.844669 -2.569709 -1.368072
H      3.129147 -0.249790 -1.943637
H      3.216377  2.197731 -1.826883
H      4.016121  1.816057 -3.364146
H      6.148356  2.934685 -3.983937
H      7.582930  4.938428 -3.746610
H      7.276286  6.467827 -1.813245
H      5.513084  5.985893 -0.130436
H      4.077083  3.983548 -0.376492
H      6.991923  2.811789  1.702913
H      7.189033  1.118656  2.222146
H      5.565535  1.861401  2.204321
H     -1.195751  1.675625 -0.832495
H      0.443628  2.245158 -0.463601
H     -0.733900 -0.065262  2.762798
H     -1.890938  0.546664  3.971169
H     -0.252942  0.057322  4.469765
H     -0.159335  4.346767  0.592149
H      1.555499  4.073171  0.164729
H      1.129652  5.228475  1.447267
H      2.051670  0.713843  0.489456
H      3.558196 -0.360548  1.473205
H      2.196511 -3.728652  2.283982
H      3.683468 -5.603134  2.875857
H      6.151821 -5.314160  2.865100
H      7.116393 -3.095662  2.264206
H      5.635127 -1.225820  1.646535
H     -1.803841 -1.782452 -0.857035
H     -0.613698 -3.119694 -0.893752
H     -2.883535 -1.106471 -2.701961
H     -5.440927 -1.543735 -4.799757
H     -0.736444 -3.196591 -4.702450
H      0.024138 -4.026922 -3.329014
H      3.374155 -4.584384 -0.825699
H      5.050377 -3.888498 -0.510397
H      5.497137 -3.837201 -2.988586
H      3.814906 -4.523016 -3.309467
C      7.555219  1.283222 -0.499513
H      7.653762  2.148077 -1.166872
H      7.566767  0.359022 -1.082386
H      8.410486  1.269033  0.179000
H      2.232451  2.223383  3.310042
H      2.267210  4.004546  3.461187
H      3.007047  3.199585  2.049430
H      0.730688  2.340974  5.236604
H     -1.027882  2.621352  5.255915
H      0.031071  3.735534  4.364685
C     -3.682492  2.920163  2.933337
H     -3.285605  2.205309  3.661862
H     -4.379649  3.584533  3.457222
H     -2.853838  3.530020  2.554496
H     -5.250504  1.630761  2.220947
H     -4.846304  2.964285  1.131532
H     -1.852802  1.658687  1.353073
