157
temp
O      6.145032  1.861491 -2.186987
C      5.893852  1.633844 -0.995884
C      6.667828  2.217052  0.102564
C      6.435161  1.804224  1.432203
N      5.446938  0.888092  1.704665
C      5.178561  0.512468  3.086586
C      4.438800  0.534869  0.741300
O      3.184801  1.810610  0.976360
C      3.507960  3.145344  1.296098
O      3.778188 -0.515018  0.924758
C      7.253656  2.337429  2.450402
C      8.241854  3.258353  2.140525
C      8.457897  3.678985  0.824687
C      7.670408  3.147104 -0.182759
N      4.903230  0.763998 -0.623649
C      4.132760  0.152427 -1.674693
C      3.072585  0.921447 -2.165409
C      2.274588  0.468399 -3.203676
C      2.529787 -0.789605 -3.741187
C      3.584305 -1.545679 -3.251923
C      4.438194 -1.103944 -2.222781
C      5.609922 -2.040585 -1.863029
C      6.457370 -2.259457 -3.136226
C      6.571752 -1.553839 -0.769178
C      5.037467 -3.393442 -1.391192
H      4.400600 -0.248313  3.084392
H      4.840182  1.373443  3.680762
H      6.078324  0.092116  3.548951
H      7.108748  2.045591  3.483215
H      8.853298  3.659754  2.944607
H      9.232611  4.404002  0.596643
H      7.814197  3.434761 -1.219778
H      2.895316  1.887979 -1.704693
H      1.463257  1.083861 -3.583976
H      1.912700 -1.181797 -4.545043
H      3.762970 -2.517176 -3.701505
H      5.883139 -2.720341 -3.944774
H      7.301920 -2.918519 -2.904427
H      6.855500 -1.304958 -3.498749
H      7.091307 -0.634687 -1.053686
H      7.333917 -2.328912 -0.627795
H      6.065603 -1.402348  0.186737
H      5.858768 -4.082926 -1.164677
H      4.400955 -3.863659 -2.146289
H      4.444211 -3.255419 -0.480990
O     -3.072543 -3.249340  1.548403
C     -2.360745 -2.829419  0.640117
N     -2.800402 -2.597822 -0.624036
C     -4.165024 -2.761907 -1.028382
C     -5.127403 -1.631818 -0.764718
N     -4.638399 -0.552629 -0.111734
C     -5.485297  0.595437  0.171664
H     -6.492287  0.220172  0.362758
C     -4.989392  1.346656  1.423802
C     -5.219023  0.555372  2.686055
C     -4.188658 -0.176424  3.280434
C     -4.425413 -0.927624  4.430492
C     -5.694873 -0.954768  5.001589
C     -6.729642 -0.226760  4.415271
C     -6.491573  0.521105  3.266198
C     -5.468123  1.570466 -1.013530
N     -6.637980  1.926759 -1.568032
C     -6.673410  2.927599 -2.636059
O     -4.372374  2.025228 -1.405196
O     -6.306690 -1.712000 -1.128292
C     -4.392602 -3.543278 -2.307207
C     -4.747539 -4.160167 -0.998260
C     -0.864292 -2.593664  0.869739
H     -0.747366 -2.373988  1.938174
N     -0.320352 -1.492913  0.058748
C     -0.919172 -0.292146  0.097486
C     -0.514731  0.781303 -0.912470
H      0.380665  0.490761 -1.466855
C     -0.292489  2.117237 -0.184361
N      0.526597  1.945110  1.004121
C      0.076859  2.185994  2.244335
N      0.585618  1.485038  3.273654
C      1.160741  0.151729  3.096346
C      0.792627  2.084654  4.592120
N     -0.872194  3.119595  2.483917
C     -1.878541  2.955477  3.530718
C     -0.920529  4.384370  1.752116
N     -1.613516  0.982988 -1.853278
C     -1.945513 -0.022905 -2.739797
N     -3.145602  0.192031 -3.375042
C     -3.798859 -0.679046 -4.261359
C     -5.192440 -0.564063 -4.359635
C     -5.905452 -1.377978 -5.229379
C     -5.244354 -2.323119 -6.012095
C     -3.858587 -2.426900 -5.922209
C     -3.128297 -1.610810 -5.062800
O     -1.215483 -1.000221 -2.942476
O     -1.859025 -0.064070  0.881482
C      0.854934 -1.906248 -0.738059
C      1.306342 -3.186237 -0.040845
H      1.825075 -3.856651 -0.737388
N      2.200994 -2.846410  1.067247
C      2.841502 -3.803019  1.758539
C      3.875562 -3.228604  2.754406
F      4.504571 -4.248206  3.397781
F      3.212207 -2.485516  3.712731
O      2.668404 -5.012718  1.642651
C     -0.014549 -3.803442  0.441722
H     -2.142554 -2.264418 -1.322154
H     -3.653937 -0.492984  0.135275
H     -5.537965  2.295428  1.476950
H     -3.927428  1.584403  1.295092
H     -3.198479 -0.164366  2.833325
H     -3.613926 -1.494829  4.878879
H     -5.878956 -1.539399  5.898769
H     -7.722799 -0.239675  4.856222
H     -7.301646  1.089590  2.812563
H     -5.658683  3.245071 -2.872869
H     -7.263076  3.793709 -2.313146
H     -7.140936  2.498424 -3.529544
H     -1.271181  2.504559  0.111088
H      0.165386  2.830378 -0.881331
H      0.616357  3.160516  4.551906
H      1.833836  1.912972  4.889640
H      0.134523  1.633060  5.344225
H     -0.045812  4.480033  1.105904
H     -0.911934  5.209545  2.475017
H     -1.832897  4.462763  1.147351
H     -2.406967  1.505033 -1.480358
H     -3.719486  0.937938 -2.988338
H     -5.717217  0.157100 -3.736844
H     -6.985916 -1.278235 -5.285781
H     -5.801894 -2.965340 -6.687296
H     -3.328094 -3.150385 -6.535675
H     -2.051202 -1.696809 -5.009012
H      1.632863 -1.135939 -0.738034
H      0.562053 -2.114693 -1.771945
H      2.594116 -1.900715  1.092614
H      4.623385 -2.581525  2.276848
H      0.121003 -4.520170  1.252039
H     -0.486272 -4.316478 -0.404123
H     -3.494320 -3.884996 -2.811949
H     -5.192659 -3.184582 -2.945533
H     -5.797133 -4.232282 -0.734322
H     -4.093717 -4.925844 -0.594558
C     -7.942167  1.404200 -1.134189
H     -7.937871  0.311007 -1.115070
H     -8.690505  1.731869 -1.858123
H     -8.223738  1.793305 -0.148676
H     -1.704580  3.635539  4.374339
H     -1.881633  1.924451  3.888563
H     -2.863932  3.177443  3.103202
H      2.246140  0.199015  2.965124
H      0.730320 -0.324134  2.214603
H      0.920338 -0.448486  3.980427
C      3.549403  4.076511  0.085751
H      3.764892  5.105811  0.398022
H      2.582394  4.070674 -0.431750
H      4.321108  3.770827 -0.628657
H      4.466741  3.199017  1.836921
H      2.746182  3.526464  2.004019
H      1.555510  1.713601  0.906541
