157
temp
O     -6.096738  2.388925  1.999936
C     -5.796210  1.487040  1.214903
C     -6.799216  0.790755  0.396294
C     -6.406492  0.240631 -0.838640
N     -5.066173  0.281056 -1.168698
C     -4.629401 -0.165218 -2.480167
C     -4.110159  0.223533 -0.108576
O     -4.455228 -1.551263  0.506385
C     -5.276393 -1.928288  1.583221
O     -2.898509  0.137108 -0.388189
C     -7.390503 -0.294937 -1.684908
C     -8.720150 -0.297220 -1.283899
C     -9.106157  0.233761 -0.051028
C     -8.140660  0.789395  0.775896
N     -4.485969  1.089282  1.016114
C     -3.453539  2.013177  1.464901
C     -3.149555  3.000078  0.522538
C     -2.205860  3.982770  0.774345
C     -1.558118  3.977212  2.003260
C     -1.870536  3.003907  2.944569
C     -2.821518  1.991039  2.725617
C     -3.080526  0.951100  3.832199
C     -2.704683 -0.443979  3.311232
C     -2.220984  1.209561  5.082104
C     -4.547943  0.965999  4.296062
H     -5.292220  0.255794 -3.240708
H     -4.620613 -1.260338 -2.579206
H     -3.623084  0.212449 -2.654880
H     -7.120685 -0.734788 -2.638032
H     -9.466570 -0.733684 -1.942294
H     -10.147988  0.217209  0.252960
H     -8.407752  1.234924  1.729789
H     -3.679492  2.981919 -0.426556
H     -1.987106  4.738744  0.025234
H     -0.811528  4.730645  2.239440
H     -1.347821  3.040273  3.891592
H     -3.234605 -0.691562  2.389771
H     -2.953118 -1.200186  4.066405
H     -1.628338 -0.484588  3.123704
H     -2.453213  2.171310  5.553443
H     -1.149542  1.170245  4.859169
H     -2.435115  0.421695  5.811945
H     -5.233235  0.638527  3.515995
H     -4.849997  1.969552  4.613334
H     -4.655863  0.285206  5.148630
O      2.582082 -3.201120  0.374270
C      1.974516 -3.433220 -0.667909
N      2.578785 -3.867592 -1.801707
C      3.998557 -4.051689 -1.881705
C      4.867380 -2.822521 -1.971669
N      4.227017 -1.639533 -2.106122
C      4.971933 -0.390168 -2.118078
H      5.860506 -0.528958 -2.736766
C      4.092887  0.712266 -2.742431
C      4.755489  2.063728 -2.700950
C      5.758924  2.394023 -3.616897
C      6.399208  3.628646 -3.554270
C      6.043395  4.551708 -2.572281
C      5.041667  4.233989 -1.657703
C      4.402920  2.997823 -1.722772
C      5.339998  0.028694 -0.685953
N      6.611614  0.346932 -0.402699
C      6.943338  0.934794  0.896131
O      4.423124  0.113010  0.154370
O      6.099934 -2.916947 -1.957872
C      4.588447 -5.243387 -1.160179
C      4.479054 -5.267074 -2.647589
C      0.450520 -3.282172 -0.748447
H      0.110017 -3.319640 -1.791880
N      0.055215 -2.006010 -0.139071
C      0.627445 -0.872350 -0.563519
C      0.422772  0.419352  0.234400
H     -0.415294  0.350312  0.932827
C      0.228583  1.607112 -0.719147
N     -0.787206  1.309691 -1.724394
C     -0.521276  1.294458 -3.039985
N     -1.109038  0.382778 -3.842700
C     -1.340830 -1.007560 -3.437056
C     -1.430537  0.678396 -5.239561
N      0.302180  2.224327 -3.563683
C      0.395100  3.578980 -3.017317
C      1.199218  1.935610 -4.682233
N      1.646622  0.640867  0.991887
C      1.736613  0.269152  2.321209
N      3.040515  0.150883  2.750823
C      3.485991 -0.123205  4.050389
C      4.805444 -0.582500  4.185106
C      5.336264 -0.841246  5.441675
C      4.563061 -0.656941  6.587007
C      3.254298 -0.200770  6.451780
C      2.708857  0.072551  5.200170
O      0.748684  0.103899  3.038411
O      1.393261 -0.859848 -1.546406
C     -0.865715 -2.189637  0.997849
C     -1.447278 -3.583611  0.754528
H     -1.738680 -4.054071  1.703262
N     -2.620223 -3.458355 -0.117083
C     -3.197702 -4.506974 -0.723254
C     -4.416342 -4.085039 -1.568912
F     -5.342843 -5.089252 -1.571814
F     -3.983636 -3.937098 -2.876071
O     -2.830863 -5.682517 -0.718556
C     -0.260525 -4.328836  0.122398
H      2.032977 -3.936132 -2.649742
H      3.223417 -1.578794 -1.954735
H      3.140598  0.742133 -2.202518
H      3.887247  0.415303 -3.777719
H      6.038010  1.675994 -4.385774
H      7.175592  3.872269 -4.274547
H      6.541677  5.515968 -2.523553
H      4.755435  4.950255 -0.892212
H      3.622575  2.749864 -1.006146
H      7.466489  0.205573  1.527164
H      6.031071  1.255969  1.399149
H      7.598222  1.798403  0.739014
H      1.176534  1.802862 -1.227159
H     -0.040820  2.489741 -0.126199
H     -2.446523  0.319656 -5.438108
H     -0.743767  0.176380 -5.932379
H     -1.400232  1.754998 -5.412915
H      1.262423  0.858604 -4.846256
H      2.197722  2.306536 -4.422419
H      0.872722  2.432182 -5.604056
H      2.500678  0.565680  0.438881
H      3.756926  0.144000  2.027690
H      5.409884 -0.737132  3.293911
H      6.360036 -1.196210  5.523344
H      4.975988 -0.864172  7.569714
H      2.640428 -0.045393  7.335156
H      1.692645  0.433033  5.112410
H     -1.636867 -1.416729  0.994154
H     -0.317304 -2.165587  1.947119
H     -3.249236 -2.625087  0.065760
H     -4.892711 -3.150524 -1.245983
H     -0.552927 -5.210673 -0.444709
H      0.406150 -4.633490  0.936313
H      3.882980 -5.833579 -0.584824
H      5.570274 -5.097574 -0.723565
H      5.385705 -5.134825 -3.228316
H      3.704220 -5.880651 -3.097311
C      7.740061  0.155495 -1.321970
H      8.654813  0.117161 -0.725790
H      7.821748  0.986071 -2.034155
H      7.649160 -0.790827 -1.858933
H     -0.415266  3.754756 -2.307871
H      0.304365  4.293207 -3.844060
H      1.359617  3.743207 -2.520346
H     -2.318902 -1.333541 -3.801947
H     -1.322194 -1.112886 -2.352931
H     -0.570130 -1.653682 -3.877426
C     -6.525753 -2.699025  1.158096
H     -6.257271 -3.646296  0.676100
H     -7.124241 -2.111171  0.454055
H     -7.148310 -2.932956  2.031158
H     -5.587294 -1.043802  2.165962
H     -4.701706 -2.558826  2.291328
H     -1.661353  0.888464 -1.381416
