106
temp
O      0.887087  0.029462 -3.387315
C      0.100180 -0.553450 -2.647402
N      0.413913 -1.655776 -1.914879
C      1.735963 -2.206018 -1.857123
C      2.674813 -1.701192 -0.786679
N      2.190428 -0.746507  0.040650
H      1.270757 -0.342733 -0.128230
C      3.025859 -0.082756  1.034309
H      4.042431 -0.455804  0.898182
C      3.030072  1.444866  0.816728
C      3.656799  1.814651 -0.500586
C      5.048350  1.824000 -0.645465
C      5.633255  2.129914 -1.870378
C      4.831520  2.428501 -2.971988
C      3.445786  2.418403 -2.838024
C      2.862924  2.113794 -1.609367
C      2.504405 -0.365752  2.453790
N      3.220923 -1.186969  3.246551
C      2.873823 -1.320154  4.661013
C      4.391791 -1.955313  2.812176
O      1.470617  0.206030  2.842480
O      3.815633 -2.169893 -0.690758
C      1.885384 -3.670375 -2.230609
C      2.376479 -2.621968 -3.165233
C     -1.360663 -0.100429 -2.585489
H     -1.352677  0.960343 -2.871772
N     -1.992898 -0.270202 -1.271552
C     -1.375968  0.208635 -0.175334
C     -1.968790 -0.081145  1.207887
H     -2.957988 -0.540134  1.124113
C     -2.063886  1.245607  1.973387
N     -2.806733  2.188417  1.157955
C     -2.244617  3.326506  0.872281
N     -1.218351  3.920093  1.590023
C     -0.131056  4.650795  0.957246
C     -1.209035  3.922352  3.043782
N     -2.646135  4.025104 -0.251923
C     -2.907867  5.461629 -0.169669
C     -3.451350  3.339709 -1.251007
N     -1.093333 -0.982102  1.947013
H     -0.317155 -0.564703  2.459313
C     -0.943925 -2.279304  1.563970
O     -0.034270 -2.892893  2.352491
C      0.244244 -4.341413  2.209125
C      1.260791 -4.594145  3.315277
C     -1.023387 -5.150956  2.457375
O     -1.572681 -2.804291  0.648250
O     -0.296153  0.817499 -0.271435
C     -3.316982 -0.916896 -1.355180
C     -3.640385 -0.867833 -2.855793
H     -4.277182 -1.712172 -3.137397
N     -4.329775  0.367889 -3.233114
C     -5.635869  0.534636 -2.981189
C     -6.270432  1.839446 -3.488663
F     -5.343212  2.679352 -4.059006
F     -6.813002  2.501617 -2.419644
O     -6.357916 -0.278525 -2.409477
C     -2.262171 -0.933253 -3.514586
H     -0.293678 -2.058388 -1.307618
H      3.591970  1.895334  1.644540
H      2.000085  1.810875  0.876118
H      5.676991  1.591634  0.212305
H      6.715766  2.137660 -1.966435
H      5.286636  2.667319 -3.929393
H      2.813558  2.643132 -3.692687
H      1.780364  2.095618 -1.510296
H      3.767146 -1.134436  5.268902
H      2.509672 -2.331463  4.876069
H      2.099624 -0.597108  4.915998
H      4.453579 -2.855061  3.431134
H      5.319256 -1.382504  2.943807
H      4.298148 -2.268858  1.770458
H      0.963106 -4.187425 -2.476317
H      2.617600 -4.232474 -1.661538
H      1.796482 -2.410815 -4.056305
H      3.446783 -2.462529 -3.238816
H     -1.034599  1.569635  2.191050
H     -2.564239  1.048078  2.933418
H     -0.165870  5.728075  1.182199
H     -0.170780  4.516887 -0.125807
H      0.831645  4.262160  1.320365
H     -1.156248  4.957992  3.411999
H     -0.348225  3.372706  3.452776
H     -2.126785  3.470600  3.426272
H     -2.530644  5.973393 -1.063661
H     -2.425282  5.889531  0.709964
H     -3.989996  5.651427 -0.094511
H     -3.381348  3.890802 -2.196036
H     -4.513282  3.276315 -0.965137
H     -3.076691  2.324347 -1.396649
H     -4.062291 -0.377487 -0.765435
H     -3.260247 -1.955164 -1.008617
H     -3.822697  1.101557 -3.709828
H     -7.063182  1.640480 -4.220342
H     -2.254531 -0.564996 -4.543181
H     -1.930411 -1.976958 -3.517680
H      0.842755 -4.336916  4.293580
H      2.163924 -4.000338  3.144665
H      1.537740 -5.652498  3.319642
H     -0.755988 -6.210721  2.522800
H     -1.748586 -5.022636  1.652634
H     -1.482203 -4.855428  3.406863
C      0.867558 -4.616668  0.848861
H      1.746982 -3.980259  0.705626
H      0.159735 -4.436828  0.038400
H      1.192267 -5.661803  0.806763
