114
temp
O      1.538764  1.742788  2.461214
C      0.828303  1.797467  1.459549
N      1.242769  2.290599  0.266018
C      2.586264  2.732032  0.035352
C      3.641282  1.691619 -0.244694
N      3.238305  0.400830 -0.251062
H      2.257245  0.157049 -0.131800
C      4.178716 -0.671839 -0.532587
H      5.150285 -0.357960 -0.147244
C      3.756941 -1.975142  0.172553
C      3.843798 -1.866894  1.673744
C      2.691033 -1.782656  2.456747
C      2.781650 -1.664370  3.842680
C      4.027559 -1.629888  4.462741
C      5.184669 -1.714796  3.688710
C      5.091592 -1.832574  2.305424
C      4.235304 -0.938599 -2.043669
N      5.434250 -0.925439 -2.650441
C      5.543768 -1.248612 -4.073985
C      6.697112 -0.641591 -1.952818
O      3.174143 -1.184413 -2.652688
O      4.814736  2.027038 -0.447530
C      2.739758  4.049642 -0.697181
C      3.049303  3.979667  0.758899
C     -0.638645  1.366387  1.535778
H     -0.691609  0.622143  2.339612
N     -1.170202  0.816344  0.279837
C     -0.498960 -0.157949 -0.360060
C     -0.883916 -0.514909 -1.802177
H     -1.730857  0.081366 -2.151005
C     -1.220867 -2.008960 -1.946269
N     -2.556624 -2.301829 -1.451855
C     -2.777503 -2.455498 -0.180942
N     -1.834215 -2.757645  0.790865
C     -1.867463 -2.187870  2.127369
C     -0.805411 -3.759756  0.573074
N     -4.071457 -2.292351  0.297756
C     -5.078325 -1.758523 -0.612551
C     -4.624283 -3.298377  1.208597
N      0.269950 -0.204286 -2.644867
H      1.046637 -0.859422 -2.586010
C      0.604808  1.113868 -2.860166
N      1.820787  1.277084 -3.483344
H      2.421648  0.455211 -3.492881
C      2.444896  2.491881 -3.803073
C      3.844383  2.493974 -3.885447
C      4.527864  3.655106 -4.220934
C      3.830693  4.834776 -4.476703
C      2.439560  4.827440 -4.408157
C      1.739851  3.669036 -4.082813
O     -0.143339  2.049003 -2.542474
O      0.508452 -0.679635  0.149463
C     -2.417801  1.481132 -0.143188
C     -2.888338  2.170147  1.145138
H     -3.509924  3.041153  0.910831
N     -3.620358  1.251067  2.008620
C     -4.926215  0.941373  1.730314
N     -5.507993  0.093981  2.656365
H     -4.906420 -0.263147  3.385734
O     -5.503176  1.383920  0.735452
C     -1.567992  2.564981  1.808810
H      0.600919  2.302240 -0.522357
H      4.425217 -2.770173 -0.183024
H      2.739626 -2.235149 -0.139891
H      1.717696 -1.793623  1.973256
H      1.874571 -1.595775  4.437643
H      4.099196 -1.537929  5.543029
H      6.161231 -1.692750  4.164949
H      5.998039 -1.902686  1.706481
H      4.549859 -1.420969 -4.485521
H      6.156088 -2.148487 -4.206518
H      6.020995 -0.417617 -4.605855
H      6.940707 -1.425527 -1.226541
H      6.658013  0.329094 -1.449494
H      7.492127 -0.610299 -2.699842
H      1.813871  4.523870 -1.007380
H      3.563928  4.107769 -1.400000
H      2.334891  4.400370  1.458642
H      4.090616  3.996255  1.061851
H     -0.397674 -2.579844 -1.492329
H     -1.204311 -2.227930 -3.021613
H     -2.598897 -1.377390  2.169240
H     -0.875899 -1.777853  2.368247
H     -2.118581 -2.934819  2.896921
H     -1.012996 -4.323251 -0.339839
H     -0.807387 -4.466887  1.415499
H      0.198835 -3.314254  0.503446
H     -5.943858 -1.439671 -0.021639
H     -5.410079 -2.510268 -1.346228
H     -4.683339 -0.900147 -1.158028
H     -5.320105 -2.826595  1.912377
H     -3.832847 -3.791661  1.772918
H     -5.175549 -4.068083  0.644823
H      4.395922  1.582332 -3.666312
H      5.613109  3.637491 -4.271654
H      4.364642  5.745240 -4.732129
H      1.881588  5.736250 -4.618033
H      0.658661  3.675842 -4.040545
H     -3.150628  0.757303 -0.505200
H     -2.215604  2.222531 -0.927000
H     -3.230529  1.033112  2.914081
H     -1.662880  2.781799  2.875683
H     -1.181275  3.459033  1.308244
C     -6.812851 -0.416099  2.672435
C     -7.109353 -1.355843  3.673407
C     -7.817288 -0.043435  1.768284
C     -9.375709 -1.551949  2.862562
C     -9.082273 -0.616777  1.874408
H     -9.849923 -0.318773  1.165049
H     -7.606173  0.680138  0.993601
C     -8.376292 -1.914824  3.764259
H     -8.580881 -2.640710  4.546468
H     -10.366770 -1.990023  2.932018
H     -6.335522 -1.647785  4.380529
