9
temp
C     -4.450058  2.890206 -0.046089
O     -3.403986  1.902696 -0.033748
H     -3.193493  1.707382  0.887048
C     -4.785934  3.202109 -1.488607
H     -3.909059  3.594191 -2.014381
H     -5.580822  3.953316 -1.535643
H     -5.130002  2.302414 -2.009417
H     -4.117895  3.802266  0.472901
H     -5.339641  2.508329  0.477666
