52
temp
O     -1.736732  0.169730 -2.927939
C     -2.564776 -0.332651 -2.166418
C     -3.004200 -1.729973 -2.261680
C     -4.064412 -2.202753 -1.457996
N     -4.628449 -1.373241 -0.499690
C     -5.469800 -2.003744  0.527043
C     -3.796501 -0.258527 -0.041725
O     -4.517119  0.611956  0.762211
C     -5.721188  1.208993  0.218602
O     -2.709642 -0.704701  0.749991
C     -4.524802 -3.515753 -1.664623
C     -3.937648 -4.318511 -2.632087
C     -2.880604 -3.853033 -3.417402
C     -2.426916 -2.558704 -3.227473
N     -3.225561  0.418783 -1.212619
C     -2.910919  1.823249 -1.129254
C     -2.042404  2.214352 -0.103977
C     -1.662262  3.536437  0.053642
C     -2.139000  4.480731 -0.849339
C     -2.988832  4.085966 -1.871188
C     -3.422288  2.758840 -2.050568
C     -4.371386  2.523629 -3.251387
C     -4.960007  1.113622 -3.432011
C     -5.576488  3.485947 -3.134505
C     -3.590257  2.852091 -4.542592
H     -4.956379 -2.845043  1.014064
H     -6.396619 -2.368420  0.074770
H     -5.731095 -1.265073  1.284514
C     -6.405260  1.928530  1.357460
H     -6.363536  0.431351 -0.212094
H     -5.441913  1.910251 -0.574502
H     -5.337714 -3.916553 -1.071885
H     -4.310391 -5.330199 -2.768794
H     -2.426386 -4.492793 -4.167241
H     -1.618957 -2.152419 -3.828182
H     -1.667289  1.452029  0.569383
H     -0.990317  3.819532  0.858722
H     -1.847311  5.523985 -0.765427
H     -3.330520  4.846613 -2.564737
H     -4.205755  0.382303 -3.727630
H     -5.688867  1.164121 -4.248620
H     -5.481764  0.746985 -2.545555
H     -5.277806  4.536402 -3.101823
H     -6.165352  3.272293 -2.235191
H     -6.228649  3.353103 -4.004704
H     -4.237712  2.694302 -5.413110
H     -2.718173  2.196582 -4.635904
H     -3.246698  3.890678 -4.559695
H     -5.747915  2.693962  1.781369
H     -6.689404  1.228154  2.149118
H     -7.310445  2.417996  0.985173
H     -3.060701 -1.008749  1.600848
