52
temp
O     -2.468165 -1.294301 -3.384659
C     -3.106628 -1.070054 -2.363827
C     -3.124245 -2.072513 -1.288796
C     -4.173923 -2.098838 -0.363313
N     -5.174442 -1.161967 -0.530303
C     -6.266091 -1.157985  0.451498
C     -4.785692  0.163651 -0.996454
O     -5.936683  0.825053 -1.430079
C     -6.655661  0.187282 -2.519249
O     -4.249704  0.825652  0.111426
C     -4.202376 -3.105566  0.613955
C     -3.180753 -4.046457  0.658628
C     -2.127787 -4.015360 -0.257258
C     -2.112721 -3.034242 -1.237617
N     -3.811380  0.140232 -2.125132
C     -3.231890  1.397139 -2.587592
C     -2.338539  1.288874 -3.671618
C     -1.263410  2.149128 -3.854988
C     -1.042626  3.143335 -2.918912
C     -2.090516  3.432562 -2.053917
C     -3.296362  2.715874 -1.954685
C     -4.546646  3.645558 -1.635336
C     -5.490191  3.493945 -2.847524
C     -5.306802  3.503424 -0.297566
C     -4.128699  5.137959 -1.658843
H     -5.902675 -0.979152  1.472732
H     -6.774938 -2.125694  0.416095
H     -6.983137 -0.380863  0.192174
C     -8.049355  0.774668 -2.548281
H     -6.689582 -0.895273 -2.350373
H     -6.118472  0.367961 -3.460362
H     -5.006111 -3.156530  1.338187
H     -3.207687 -4.814247  1.427182
H     -1.333080 -4.752882 -0.208167
H     -1.318146 -2.992726 -1.975514
H     -2.449963  0.462290 -4.350367
H     -0.594543  1.992786 -4.696371
H     -0.151572  3.763344 -2.930117
H     -2.008105  4.344754 -1.477447
H     -4.989704  3.855092 -3.753231
H     -6.390857  4.098729 -2.688127
H     -5.787946  2.463741 -3.014599
H     -4.613657  3.576949  0.549510
H     -5.883470  2.589153 -0.207957
H     -6.003124  4.345148 -0.216116
H     -5.048944  5.731120 -1.641643
H     -3.576162  5.404786 -2.564251
H     -3.542566  5.429865 -0.780854
H     -8.022413  1.859130 -2.688475
H     -8.582448  0.555371 -1.617944
H     -8.608714  0.333542 -3.379234
H     -3.800037  1.638584 -0.176980
