157
temp
O      3.068203  1.921916 -1.838321
C      3.543831  0.926674 -1.238091
C      3.465848 -0.421944 -1.813972
C      4.297375 -1.456479 -1.311623
N      5.022482 -1.248433 -0.177614
C      6.118119 -2.130404  0.178013
C      4.614803 -0.192827  0.784528
O      3.248131 -0.758352  1.274297
C      2.735870 -0.126174  2.455043
O      5.415680  0.074883  1.712594
C      4.363727 -2.669244 -2.034351
C      3.580402 -2.857986 -3.160966
C      2.730095 -1.850804 -3.631772
C      2.702771 -0.636642 -2.965557
N      4.238859  1.035868 -0.083949
C      4.510693  2.341268  0.450503
C      3.468258  2.938149  1.169454
C      3.619211  4.161378  1.800240
C      4.852800  4.800230  1.722484
C      5.873885  4.228218  0.978954
C      5.739938  3.008487  0.288370
C      6.959644  2.556109 -0.540642
C      8.078590  2.128707  0.429578
C      6.707096  1.403209 -1.522203
C      7.457493  3.743253 -1.397717
H      6.602464 -1.718248  1.064968
H      6.847441 -2.182730 -0.641211
H      5.785192 -3.154507  0.394978
C      2.648454 -1.088856  3.626912
H      1.731811  0.266756  2.234232
H      3.379540  0.718309  2.723517
H      5.006326 -3.471816 -1.690105
H      3.630293 -3.811141 -3.681531
H      2.120266 -2.010243 -4.515394
H      2.100028  0.186472 -3.335900
H      1.218076  2.059547 -1.687926
H      2.521959  2.412350  1.233867
H      2.793606  4.598673  2.354700
H      5.020088  5.746538  2.229649
H      6.820509  4.755627  0.931515
H      7.746205  1.281780  1.038408
H      8.361027  2.948276  1.098976
H      8.968046  1.828490 -0.137615
H      5.891176  1.632954 -2.215722
H      6.485814  0.464187 -1.014965
H      7.616863  1.256572 -2.115580
H      8.294614  3.409189 -2.020562
H      7.813028  4.585007 -0.798597
H      6.661028  4.103463 -2.058986
O     -2.229794 -4.083790  2.568838
C     -1.738902 -3.711732  1.506911
N     -2.451835 -3.542702  0.362227
C     -3.872454 -3.716418  0.291046
C     -4.746493 -2.590117  0.778397
N     -4.117730 -1.511309  1.295966
C     -4.881855 -0.382155  1.798908
H     -5.751653 -0.774319  2.330521
C     -4.028829  0.443132  2.783158
C     -4.841693  1.558672  3.388685
C     -5.595266  1.336566  4.544912
C     -6.404369  2.340627  5.070232
C     -6.475115  3.582168  4.441342
C     -5.725536  3.815028  3.290093
C     -4.912822  2.810443  2.770373
C     -5.292961  0.529358  0.633028
N     -6.577898  0.887970  0.501868
C     -6.964506  1.874737 -0.507247
O     -4.399109  0.937541 -0.139963
O     -5.978916 -2.672826  0.715930
C     -4.393167 -4.504404 -0.892990
C     -4.424367 -5.117050  0.465015
C     -0.233601 -3.454065  1.392408
H      0.108068 -3.169762  2.394615
N      0.095981 -2.402523  0.416909
C     -0.486351 -1.198371  0.517709
C     -0.380610 -0.213618 -0.653550
H      0.266820 -0.595999 -1.447599
C      0.169576  1.117222 -0.130466
N      0.327678  2.109579 -1.182218
C     -0.654608  2.867019 -1.701309
N     -1.607136  3.406729 -0.916613
C     -1.356866  3.788034  0.471997
C     -2.968765  3.643119 -1.398905
N     -0.652973  3.113786 -3.023533
C     -0.040084  2.181202 -3.970721
C     -1.060035  4.406539 -3.577812
N     -1.714259 -0.020282 -1.209329
C     -2.247464 -1.032412 -1.991979
N     -3.580959 -0.857371 -2.265054
C     -4.426415 -1.724164 -2.973467
C     -5.803134 -1.597529 -2.737755
C     -6.708307 -2.411251 -3.404728
C     -6.259855 -3.364947 -4.317524
C     -4.893756 -3.477449 -4.562140
C     -3.973045 -2.663945 -3.907138
O     -1.561148 -1.971560 -2.410883
O     -1.204300 -0.903585  1.489855
C      1.086185 -2.851087 -0.580868
C      1.718925 -4.061517  0.097941
H      2.135920 -4.760580 -0.634823
N      2.776675 -3.633524  1.015685
C      3.532514 -4.545199  1.644311
C      4.519096 -3.953548  2.667566
F      5.711460 -4.616350  2.577480
F      4.013070 -4.208119  3.922005
O      3.455935 -5.763439  1.494300
C      0.532534 -4.678064  0.858174
H     -1.972930 -3.245443 -0.481459
H     -3.104351 -1.434455  1.283029
H     -3.158848  0.841219  2.248690
H     -3.667881 -0.236560  3.563249
H     -5.546637  0.366280  5.035011
H     -6.980972  2.153421  5.972073
H     -7.107019  4.366009  4.849664
H     -5.770119  4.782653  2.797349
H     -4.329761  2.995671  1.870615
H     -7.770392  1.469953 -1.128966
H     -6.104947  2.114293 -1.132416
H     -7.324120  2.786810 -0.014201
H      1.161691  0.923825  0.288665
H     -0.468262  1.476142  0.681439
H     -3.164589  4.712174 -1.546794
H     -3.668259  3.248545 -0.654641
H     -3.131267  3.107398 -2.336133
H     -1.986046  4.319296 -4.158051
H     -0.262868  4.763746 -4.239481
H     -1.197485  5.134327 -2.777027
H     -2.378363  0.464391 -0.604988
H     -4.051955 -0.143326 -1.710407
H     -6.158151 -0.867228 -2.013713
H     -7.770225 -2.303585 -3.201635
H     -6.966769 -4.006789 -4.834689
H     -4.530021 -4.208094 -5.279842
H     -2.914983 -2.760948 -4.109482
H      1.810151 -2.063064 -0.796376
H      0.593203 -3.155647 -1.511472
H      2.960217 -2.627951  1.145757
H      4.701518 -2.875250  2.574921
H      0.841486 -5.352800  1.657398
H     -0.087989 -5.235520  0.147058
H     -1.865203  3.109969  1.170185
H     -1.748147  4.799912  0.628794
H     -0.284328  3.791647  0.676662
H     -0.611079  2.216353 -4.903830
H     -0.082531  1.164922 -3.572437
H      1.002414  2.450193 -4.186643
C     -7.645574  0.457055  1.413657
H     -8.601696  0.725907  0.960303
H     -7.566492  0.958663  2.385893
H     -7.627737 -0.626707  1.552039
H     -3.640183 -4.845634 -1.596694
H     -5.324278 -4.151706 -1.323310
H     -5.381239 -5.192080  0.970261
H     -3.689103 -5.877979  0.704463
H      3.645495 -1.394336  3.959256
H      2.072767 -1.984144  3.366569
H      2.144768 -0.600876  4.469467
