157
temp
O     -5.820418 -1.717111 -1.663873
C     -5.246046 -0.637451 -1.455805
C     -5.839481  0.640868 -1.869345
C     -5.379328  1.849887 -1.295291
N     -4.328108  1.830602 -0.425088
C     -3.937192  3.050801  0.261004
C     -3.330563  0.723799 -0.378496
O     -2.295995  1.023816 -1.440185
C     -2.672478  1.227376 -2.807975
O     -2.699988  0.616064  0.728104
C     -6.065122  3.042166 -1.625479
C     -7.135245  3.016141 -2.506553
C     -7.573284  1.821015 -3.084471
C     -6.923594  0.642827 -2.748409
N     -4.038628 -0.573954 -0.802282
C     -3.701604 -1.771335 -0.056462
C     -4.350346 -1.855093  1.177620
C     -4.217291 -2.950919  2.014346
C     -3.422838 -4.008187  1.592456
C     -2.795007 -3.942466  0.353080
C     -2.897378 -2.838806 -0.514443
C     -2.120499 -2.872364 -1.843637
C     -1.523370 -4.261258 -2.132000
C     -3.012375 -2.522869 -3.048424
C     -0.949722 -1.878744 -1.755732
H     -4.815225  3.529568  0.706653
H     -3.441838  3.774244 -0.405747
H     -3.251841  2.778050  1.063123
H     -5.745987  3.990610 -1.209867
H     -7.633074  3.950951 -2.752581
H     -8.409309  1.814261 -3.776575
H     -7.247810 -0.310206 -3.155861
H     -4.993996 -1.029139  1.457473
H     -4.738726 -2.979629  2.967450
H     -3.298448 -4.893560  2.210465
H     -2.212942 -4.802185  0.045045
H     -2.294157 -5.038271 -2.189613
H     -0.777290 -4.559913 -1.386613
H     -1.013987 -4.220253 -3.100733
H     -2.423954 -2.626143 -3.967630
H     -3.386049 -1.501407 -3.000304
H     -3.870143 -3.199797 -3.107528
H     -0.262794 -2.157086 -0.947021
H     -1.303430 -0.864104 -1.566021
H     -0.387768 -1.886290 -2.698749
O      1.248156 -2.095454  3.516060
C      0.306736 -2.227323  2.736525
N      0.186152 -3.267634  1.876468
C      1.154148 -4.320724  1.792361
C      2.469902 -4.029452  1.116403
N      2.618327 -2.783845  0.611475
C      3.852137 -2.331406 -0.015994
H      4.608090 -3.103135  0.169626
C      3.694096 -2.180129 -1.538412
C      3.518854 -3.528802 -2.185405
C      4.637193 -4.291871 -2.535964
C      4.488974 -5.571002 -3.064306
C      3.215930 -6.108799 -3.247857
C      2.095487 -5.354319 -2.908200
C      2.248000 -4.072648 -2.383950
C      4.293052 -1.012732  0.641795
N      4.729387 -1.058383  1.912625
C      5.057529  0.207015  2.576292
O      4.237463  0.056251  0.000757
O      3.348199 -4.895855  1.058979
C      1.204225 -5.319595  2.931264
C      0.612977 -5.723712  1.622406
C     -0.857743 -1.233524  2.711598
H     -1.510184 -1.395502  1.841072
N     -0.358088  0.148276  2.681989
C      0.512082  0.531465  1.741732
C      0.940764  1.997425  1.733471
H      1.021880  2.367726  2.764918
C     -0.117105  2.892733  1.024336
N     -0.182135  2.658605 -0.406242
C      0.665610  3.193928 -1.303241
N      1.099860  4.465309 -1.174203
C      2.437176  4.880053 -1.596142
C      0.267848  5.524317 -0.607821
N      1.042214  2.469292 -2.372611
C      1.293135  3.079751 -3.678628
C      1.121881  1.009301 -2.347374
N      2.225634  2.070144  1.081244
C      3.048104  3.150721  1.247748
N      4.284713  2.972622  0.660939
C      5.352069  3.871904  0.595755
C      6.554709  3.381260  0.059128
C      7.663518  4.206989 -0.060551
C      7.602122  5.538540  0.349047
C      6.409995  6.025091  0.877912
C      5.286491  5.211756  1.006119
O      2.691835  4.168338  1.850779
O      0.957679 -0.261346  0.892465
C     -0.931205  0.979015  3.753287
C     -2.113796  0.153545  4.259060
H     -2.296008  0.342077  5.319377
N     -3.348754  0.480548  3.546251
C     -4.505715  0.466680  4.222591
C     -5.783974  0.850903  3.467221
F     -6.580494 -0.268454  3.375241
F     -5.546603  1.280098  2.189170
O     -4.642367  0.197787  5.418569
C     -1.648142 -1.291694  4.027252
H     -0.605326 -3.285910  1.243495
H      1.864193 -2.107920  0.696437
H      4.590662 -1.685657 -1.926615
H      2.838462 -1.528679 -1.747130
H      5.633439 -3.879372 -2.387993
H      5.368433 -6.149938 -3.333472
H      3.098839 -7.108144 -3.657905
H      1.098857 -5.763626 -3.051884
H      1.372091 -3.487059 -2.119983
H      4.152378  0.793347  2.777432
H      5.729988  0.801692  1.951694
H      5.552499 -0.013912  3.523186
H      0.145336  3.927354  1.247524
H     -1.110055  2.688907  1.431457
H      0.661617  5.865884  0.357882
H     -0.758846  5.173660 -0.485917
H      0.267875  6.373774 -1.301434
H      0.316021  0.566568 -2.943294
H      1.059559  0.637618 -1.323198
H      2.082520  0.706446 -2.781641
H      2.566580  1.222358  0.637031
H      4.478335  2.030458  0.324203
H      6.610309  2.343994 -0.264205
H      8.582614  3.804232 -0.477498
H      8.469830  6.184718  0.256596
H      6.343784  7.060631  1.201660
H      4.369847  5.604570  1.423712
H     -1.249602  1.960506  3.394377
H     -0.200835  1.116224  4.561795
H     -3.317893  0.596330  2.518330
H     -6.337312  1.627467  4.008784
H     -2.477280 -1.999634  3.979452
H     -0.975461 -1.577485  4.843538
H      0.528717 -5.115925  3.755674
H      2.185635 -5.702679  3.188248
H      1.191298 -6.379558  0.980272
H     -0.467027 -5.812495  1.554799
C      4.737532 -2.257945  2.753767
H      5.609808 -2.214935  3.411632
H      4.808051 -3.166795  2.156489
H      3.826696 -2.311037  3.363571
H      2.358967  3.055180 -3.935397
H      0.937718  4.111003 -3.689942
H      0.738760  2.510571 -4.433711
H      3.052926  4.005277 -1.811176
H      2.901176  5.435459 -0.772617
H      2.399351  5.529742 -2.479314
C     -2.676668  2.695647 -3.203461
H     -1.710294  3.161818 -2.982230
H     -3.459154  3.251300 -2.678808
H     -2.858841  2.787509 -4.280514
H     -3.648362  0.775136 -3.014348
H     -1.938232  0.681051 -3.417869
H     -0.836810  1.935698 -0.733902
